failed
function mpc = case300_tree

%% MATPOWER Case Format : Version 2
mpc.version = '2';

%%-----  Power Flow Data  -----%%
%% system MVA base
mpc.baseMVA = 1;

%% bus data
%	bus_i	type	Pd	Qd	Gs	Bs	area	Vm	Va	baseKV	zone	Vmax	Vmin
mpc.bus = [
	1	1	90	49	0	0	1	0.960019581	-55.8532299	115	1	1.06	0.94;
	2	1	56	15	0	0	1	1.03348344	-19.1978185	115	1	1.06	0.94;
	3	1	20	0	0	0	1	0.779502269	-54.268205	230	1	1.06	0.94;
	4	1	0	0	0	0	1	0.715072543	-50.2973037	345	1	1.06	0.94;
	5	1	353	130	0	0	1	0.932825358	-57.0602064	115	1	1.06	0.94;
	6	1	120	41	0	0	1	1.02868042	-19.7577838	115	1	1.06	0.94;
	7	1	0	0	0	0	1	0.813407906	-54.942909	230	1	1.06	0.94;
	8	2	63	14	0	0	1	1.0153	-25.7580058	115	1	1.06	0.94;
	9	1	96	43	0	0	1	0.912435719	-58.7606675	115	1	1.06	0.94;
	10	2	153	33	0	0	1	1.0205	-61.7793954	230	1	1.06	0.94;
	11	1	83	21	0	0	1	1.00976591	-60.5192316	115	1	1.06	0.94;
	12	1	0	0	0	0	1	0.895548841	-56.7657095	230	1	1.06	0.94;
	13	1	58	10	0	0	1	0.999533947	-63.4407992	115	1	1.06	0.94;
	14	1	160	60	0	0	1	0.855820728	-33.6004424	115	1	1.06	0.94;
	15	1	126.7	23	0	0	1	0.7599062	-38.8149992	115	1	1.06	0.94;
	16	1	0	0	0	0	1	0.45189422	-27.6340026	345	1	1.06	0.94;
	17	1	561	220	0	0	1	0.954383709	-53.1161411	115	1	1.06	0.94;
	19	1	0	0	0	0	1	0.86140296	173.379215	230	1	1.06	0.94;
	20	2	605	120	0	0	1	1.001	-65.2819021	115	1	1.06	0.94;
	21	1	77	1	0	0	1	0.92862895	-61.0529932	230	1	1.06	0.94;
	22	1	81	23	0	0	1	0.959400163	-63.9420898	115	1	1.06	0.94;
	23	1	21	7	0	0	1	1.0331128	-59.4314322	115	1	1.06	0.94;
	24	1	0	0	0	0	1	0.981796964	-56.7840156	230	1	1.06	0.94;
	25	1	45	12	0	0	1	0.987474574	-62.3512195	115	1	1.06	0.94;
	26	1	28	9	0	0	1	0.932127275	-66.4902395	115	1	1.06	0.94;
	27	1	69	13	0	0	1	0.874629029	-71.9062437	115	1	1.06	0.94;
	33	1	55	6	0	0	1	0.0939383084	-3.93449391	115	1	1.06	0.94;
	34	1	0	0	0	0	1	0.150618223	16.3110651	345	1	1.06	0.94;
	35	1	0	0	0	0	1	0.935549486	-13.9993923	115	1	1.06	0.94;
	36	1	0	0	0	0	1	0.8340668	-10.9193426	230	1	1.06	0.94;
	37	1	85	32	0	0	1	0.858468159	-32.2410121	115	1	1.06	0.94;
	38	1	155	18	0	0	1	1.19211658	-99.0572109	115	1	1.06	0.94;
	39	1	0	0	0	0	1	0.317668672	23.4251035	345	1	1.06	0.94;
	40	1	46	-21	0	0	1	0.0732558433	-9.85765816	115	1	1.06	0.94;
	41	1	86	0	0	0	1	0.952415555	-56.3449565	115	1	1.06	0.94;
	42	1	0	0	0	0	1	0.164412899	18.6256106	345	1	1.06	0.94;
	43	1	39	9	0	0	1	1.44614041	-146.257912	115	1	1.06	0.94;
	44	1	195	29	0	0	1	0.861757391	7.19880738	115	1	1.06	0.94;
	45	1	0	0	0	0	1	0.857813263	10.6721665	230	1	1.06	0.94;
	46	1	0	0	0	0	1	0.484408487	8.2832608	345	1	1.06	0.94;
	47	1	58	11.8	0	0	1	0.819276292	2.25837901	115	1	1.06	0.94;
	48	1	41	19	0	0	1	0.0482843513	154.41579	115	1	1.06	0.94;
	49	1	92	26	0	0	1	0.793366137	-21.7130076	115	1	1.06	0.94;
	51	1	-5	5	0	0	1	0.723845815	-24.9124885	115	1	1.06	0.94;
	52	1	61	28	0	0	1	0.650941348	-29.7351647	115	1	1.06	0.94;
	53	1	69	3	0	0	1	1.49451492	-159.552305	115	1	1.06	0.94;
	54	1	10	1	0	0	1	1.03590781	51.3380429	115	1	1.06	0.94;
	55	1	22	10	0	0	1	1.04032513	51.8670486	115	1	1.06	0.94;
	57	1	98	20	0	0	1	1.03815171	50.5840202	115	1	1.06	0.94;
	58	1	14	1	0	0	1	0.972030135	48.0297247	115	1	1.06	0.94;
	59	1	218	106	0	0	1	0.95721263	47.2194397	115	1	1.06	0.94;
	60	1	0	0	0	0	1	0.857547381	25.488662	230	1	1.06	0.94;
	61	1	227	110	0	0	1	0.970619274	48.380064	115	1	1.06	0.94;
	62	1	0	0	0	0	1	0.962921998	47.8057633	230	1	1.06	0.94;
	63	2	70	30	0	0	1	0.9583	26.7710133	115	1	1.06	0.94;
	64	1	0	0	0	0	1	0.925029502	32.3242903	230	1	1.06	0.94;
	69	1	0	0	0	0	1	0.816054068	-23.037848	115	1	1.06	0.94;
	70	1	56	20	0	0	1	1.42139117	164.019349	115	1	1.06	0.94;
	71	1	116	38	0	0	1	1.40723277	158.594645	115	1	1.06	0.94;
	72	1	57	19	0	0	1	0.946858205	-16.0052984	115	1	1.06	0.94;
	73	1	224	71	0	0	1	1.77433847	101.7515	115	1	1.06	0.94;
	74	1	0	0	0	0	1	1.73167979	56.6091663	230	1	1.06	0.94;
	76	2	208	107	0	0	1	0.9632	-15.6391772	115	1	1.06	0.94;
	77	1	74	28	0	0	1	0.982432605	-12.4384984	115	1	1.06	0.94;
	78	1	0	0	0	0	1	0.989084251	-11.4506157	115	1	1.06	0.94;
	79	1	48	14	0	0	1	0.982971573	-12.0234406	115	1	1.06	0.94;
	80	1	28	7	0	0	1	0.87926999	-18.3630963	115	1	1.06	0.94;
	81	1	0	0	0	0	1	0.733089458	-6.58550324	345	1	1.06	0.94;
	84	2	37	13	0	0	1	1.025	-4.55722444	115	1	1.06	0.94;
	85	1	0	0	0	0	1	0.591436949	-31.9043693	230	1	1.06	0.94;
	86	1	0	0	0	0	1	0.763328776	-158.472315	230	1	1.06	0.94;
	87	1	0	0	0	0	1	0.978929209	87.8698138	230	1	1.06	0.94;
	88	1	0	0	0	0	1	0.777462587	-8.27541416	230	1	1.06	0.94;
	89	1	44.2	0	0	0	1	1.0306042	-36.6483203	115	1	1.06	0.94;
	90	1	66	0	0	0	1	1.0254255	-167.750626	115	1	1.06	0.94;
	91	2	17.4	0	0	0	1	1.052	-33.8676166	115	1	1.06	0.94;
	92	2	15.8	0	0	0	1	1.052	-161.639521	115	1	1.06	0.94;
	94	1	60.3	0	0	0	1	0.986198437	81.0915856	115	1	1.06	0.94;
	97	1	39.9	0	0	0	1	0.974367347	-37.5791438	115	1	1.06	0.94;
	98	2	66.7	0	0	0	1	1	-38.389669	115	1	1.06	0.94;
	99	1	83.5	0	0	0	1	0.890219846	-153.50724	115	1	1.06	0.94;
	100	1	0	0	0	0	1	0.974367347	-37.5791438	115	1	1.06	0.94;
	102	1	77.8	0	0	0	1	0.8749153	-47.0614292	115	1	1.06	0.94;
	103	1	32	0	0	0	1	1.04525915	-164.041242	115	1	1.06	0.94;
	104	1	8.6	0	0	0	1	0.873924606	-46.719459	115	1	1.06	0.94;
	105	1	49.6	0	0	0	1	0.0829335688	-17.7488084	115	1	1.06	0.94;
	107	1	4.6	0	0	0	1	1.18224502	-95.4622938	115	1	1.06	0.94;
	108	2	112.1	0	0	0	1	0.99	-156.834363	115	1	1.06	0.94;
	109	1	30.7	0	0	0	1	0.896923207	-164.149868	115	1	1.06	0.94;
	110	1	63	0	0	0	1	0.619894259	125.674502	115	1	1.06	0.94;
	112	1	19.6	0	0	0	1	0.661888293	-45.4888257	115	1	1.06	0.94;
	113	1	26.2	0	0	0	1	0.805212126	-0.0969500605	115	1	1.06	0.94;
	114	1	18.2	0	0	0	1	0.933772457	-167.529242	115	1	1.06	0.94;
	115	1	0	0	0	0	1	0.889497612	176.423066	115	2	1.06	0.94;
	116	1	0	0	0	0	1	1.02552843	174.217247	115	2	1.06	0.94;
	117	1	0	0	0	325	1	0.871545069	-171.978413	115	2	1.06	0.94;
	118	1	14.1	650	0	0	1	0.869388309	-171.309631	115	2	1.06	0.94;
	119	2	0	0	0	0	1	1.0435	-162.735397	115	2	1.06	0.94;
	120	1	777	215	0	55	1	0.954084879	-178.442073	115	2	1.06	0.94;
	121	1	535	55	0	0	1	0.958208589	179.120737	115	2	1.06	0.94;
	122	1	229.1	11.8	0	0	1	0.889497612	176.423066	115	2	1.06	0.94;
	123	1	78	1.4	0	0	1	0.989936903	168.135759	115	2	1.06	0.94;
	124	2	276.4	59.3	0	0	1	1.0233	172.8596	115	2	1.06	0.94;
	125	2	514.8	82.7	0	0	1	1.0103	169.481881	115	2	1.06	0.94;
	126	1	57.9	5.1	0	0	1	0.865057395	176.39122	115	2	1.06	0.94;
	127	1	380.8	37	0	0	1	0.868907784	-89.1181729	230	2	1.06	0.94;
	128	1	0	0	0	0	1	0.839400029	-79.2233802	230	2	1.06	0.94;
	129	1	0	0	0	0	1	0.929800373	-90.6147554	230	2	1.06	0.94;
	130	1	0	0	0	0	1	0.840633206	-65.550767	230	2	1.06	0.94;
	131	1	0	0	0	0	1	0.798929107	-65.550767	230	2	1.06	0.94;
	132	1	0	0	0	0	1	0.739965882	-73.6401823	230	2	1.06	0.94;
	133	1	0	0	0	0	1	0.974541143	-95.881845	230	2	1.06	0.94;
	134	1	0	0	0	0	1	0.927466558	-85.4596945	230	2	1.06	0.94;
	135	1	169.2	41.6	0	0	1	0.925744969	-83.1637175	230	2	1.06	0.94;
	136	1	55.2	18.2	0	0	1	0.986463347	-72.1320684	230	2	1.06	0.94;
	137	1	273.6	99.8	0	0	1	1.00981469	-93.7241796	230	2	1.06	0.94;
	138	2	1019.2	135.2	0	0	1	1.055	-102.984288	230	2	1.06	0.94;
	139	1	595	83.3	0	0	1	0.994254347	-97.5126952	115	2	1.06	0.94;
	140	1	387.7	114.7	0	0	1	1.00576373	-97.5304839	230	2	1.06	0.94;
	141	2	145	58	0	0	1	1.051	-100.625196	230	2	1.06	0.94;
	142	1	56.5	24.5	0	0	1	0.940236845	58.5017463	230	2	1.06	0.94;
	143	2	89.5	35.5	0	0	1	1.0435	65.838347	230	2	1.06	0.94;
	144	1	0	0	0	0	1	0.966088541	49.2440625	230	2	1.06	0.94;
	145	1	24	14	0	0	1	0.966137131	71.260186	230	2	1.06	0.94;
	146	2	0	0	0	0	1	1.0528	80.5217788	230	2	1.06	0.94;
	147	2	0	0	0	0	1	1.0528	86.2619185	230	2	1.06	0.94;
	148	1	63	25	0	0	1	1.07658107	63.2335076	230	2	1.06	0.94;
	149	2	0	0	0	0	1	1.0735	79.065798	230	2	1.06	0.94;
	150	1	0	0	0	0	1	0.777790541	-58.1778863	230	2	1.06	0.94;
	151	1	0	0	0	0	1	0.870789793	-69.3669683	230	2	1.06	0.94;
	152	2	17	9	0	0	1	1.0535	-64.9464601	230	2	1.06	0.94;
	153	2	0	0	0	0	1	1.0435	-79.5824306	230	2	1.06	0.94;
	154	1	70	5	0	34.5	1	0.965985336	-98.628612	115	2	1.06	0.94;
	155	1	200	50	0	0	1	0.969570745	-82.6033695	230	2	1.06	0.94;
	156	2	75	50	0	0	1	0.963	-83.9190563	115	2	1.06	0.94;
	157	1	123.5	-24.3	0	0	1	0.894756509	179.618835	230	2	1.06	0.94;
	158	1	0	0	0	0	1	0.886959671	-179.866912	230	2	1.06	0.94;
	159	1	33	16.5	0	0	1	0.898767407	-177.929624	230	2	1.06	0.94;
	160	1	0	0	0	0	1	0.9977175	172.8596	230	2	1.06	0.94;
	161	1	35	15	0	0	1	1.01424741	-80.8923837	230	2	1.06	0.94;
	162	1	85	24	0	0	1	0.903258731	-68.7735104	230	2	1.06	0.94;
	163	1	0	0.4	0	0	1	0.939843067	-88.1966071	230	2	1.06	0.94;
	164	1	0	0	0	-212	1	0.894310751	-79.4284341	230	2	1.06	0.94;
	165	1	0	0	0	0	1	0.941281423	-59.7983164	230	2	1.06	0.94;
	166	1	0	0	0	-103	1	0.964474259	-55.5259469	230	2	1.06	0.94;
	167	1	299.9	95.7	0	0	1	0.592362023	-91.7462268	230	2	1.06	0.94;
	168	1	0	0	0	0	1	0.840633206	-65.550767	230	2	1.06	0.94;
	169	1	0	0	0	0	1	0.974541143	-95.881845	230	2	1.06	0.94;
	170	2	481.8	205	0	0	1	0.929	-77.6395031	115	2	1.06	0.94;
	171	2	763.6	291.1	0	0	1	0.9829	-100.515186	115	2	1.06	0.94;
	172	1	26.5	0	0	0	1	1.04505624	-109.44965	115	2	1.06	0.94;
	173	1	163.5	43	0	53	1	0.955684945	-130.602458	115	2	1.06	0.94;
	174	1	0	0	0	0	1	1.06061739	-106.448228	115	2	1.06	0.94;
	175	1	176	83	0	0	1	0.883671643	52.5844332	115	2	1.06	0.94;
	176	2	5	4	0	0	1	1.0522	88.3519725	115	2	1.06	0.94;
	177	2	28	12	0	0	1	1.0077	78.4227829	115	2	1.06	0.94;
	178	1	427.4	173.6	0	0	1	0.870229644	65.2418114	115	2	1.06	0.94;
	179	1	74	29	0	45	1	0.9847204	46.2268021	115	2	1.06	0.94;
	180	1	69.5	49.3	0	0	1	0.925746296	68.3840911	115	2	1.06	0.94;
	181	1	73.4	0	0	0	1	1.06470887	-87.6815644	230	2	1.06	0.94;
	182	1	240.7	89	0	0	1	1.01419693	-98.2951515	230	2	1.06	0.94;
	183	1	40	4	0	0	1	0.969468038	-84.0550261	115	2	1.06	0.94;
	184	1	136.8	16.6	0	0	1	0.998211714	-84.4476318	230	2	1.06	0.94;
	185	2	0	0	0	0	1	1.0522	-82.0672612	230	2	1.06	0.94;
	186	2	59.8	24.3	0	0	1	1.065	-87.0433607	230	2	1.06	0.94;
	187	2	59.8	24.3	0	0	1	1.065	-87.3737291	230	2	1.06	0.94;
	188	1	182.6	43.6	0	0	1	1.03161499	-92.0286578	230	2	1.06	0.94;
	189	1	7	2	0	0	1	0.991801421	-18.4359292	66	3	1.06	0.94;
	190	2	0	0	0	-150	1	1.0551	-12.2733346	345	3	1.06	0.94;
	191	2	489	53	0	0	1	1.0435	19.5845988	230	3	1.06	0.94;
	192	1	800	72	0	0	1	0.883513783	-4.88227945	230	3	1.06	0.94;
	193	1	0	0	0	0	1	0.893686428	-30.9581705	66	3	1.06	0.94;
	194	1	0	0	0	0	1	0.987173099	-10.2517791	345	3	1.06	0.94;
	195	1	0	0	0	0	1	0.878733748	-11.5014782	345	3	1.06	0.94;
	196	1	10	3	0	0	1	0.933544968	-19.3108466	115	3	1.06	0.94;
	197	1	43	14	0	0	1	0.963390382	-17.5317702	115	3	1.06	0.94;
	198	2	64	21	0	0	1	1.015	-13.3656592	115	3	1.06	0.94;
	199	1	35	12	0	0	1	0.945920314	-18.1994038	115	3	1.06	0.94;
	200	1	27	12	0	0	1	0.933983721	-17.8421953	115	3	1.06	0.94;
	201	1	41	14	0	0	1	0.821348399	-26.5265981	66	1	1.06	0.94;
	202	1	38	13	0	0	1	0.88340726	-19.8402229	66	3	1.06	0.94;
	203	1	42	14	0	0	1	1.00466829	-14.380445	115	3	1.06	0.94;
	204	1	72	24	0	0	1	0.889885683	-30.792467	66	3	1.06	0.94;
	205	1	0	-5	0	0	1	0.893686428	-30.9581705	66	3	1.06	0.94;
	206	1	12	2	0	0	1	0.972834686	-167.311396	66	3	1.06	0.94;
	207	1	-21	-14.2	0	0	1	0.98380177	-166.730676	66	1	1.06	0.94;
	208	1	7	2	0	0	1	0.987519666	-18.7863434	66	3	1.06	0.94;
	209	1	38	13	0	0	1	1.00281709	-17.822955	66	3	1.06	0.94;
	210	1	0	0	0	0	1	0.974208327	-16.2778341	115	3	1.06	0.94;
	211	1	96	7	0	0	1	0.895312678	-16.3143558	115	3	1.06	0.94;
	212	1	0	0	0	0	1	0.897074791	-15.0858843	138	3	1.06	0.94;
	213	2	0	0	0	0	1	1.01	-0.218322706	16.5	3	1.06	0.94;
	214	1	22	16	0	0	1	0.985250792	-6.09111986	138	3	1.06	0.94;
	215	1	47	26	0	0	1	0.965734173	-8.83797723	138	3	1.06	0.94;
	216	1	176	105	0	0	1	0.945460304	-11.9288515	138	3	1.06	0.94;
	217	1	100	75	0	0	1	0.981347671	-12.96199	138	3	1.06	0.94;
	218	1	131	96	0	0	1	0.968391437	-12.6168261	138	3	1.06	0.94;
	219	1	0	0	0	0	1	1.0085554	-12.2648071	345	3	1.06	0.94;
	220	2	285	100	0	0	1	1.008	-9.56028557	138	3	1.06	0.94;
	221	2	171	70	0	0	1	1	-15.4436688	138	3	1.06	0.94;
	222	2	328	188	0	0	1	1.05	-14.5904472	20	3	1.06	0.94;
	223	1	428	232	0	0	1	0.995182744	-15.5995558	138	3	1.06	0.94;
	224	1	173	99	0	0	1	0.983296626	-13.8414597	230	3	1.06	0.94;
	225	1	410	40	0	0	1	0.95846093	-3.95245442	230	3	1.06	0.94;
	226	1	0	0	0	0	1	0.995609965	-13.5817777	230	3	1.06	0.94;
	227	2	538	369	0	0	1	1	-18.7991042	27	3	1.06	0.94;
	228	1	223	148	0	0	1	0.990668885	-12.4412414	138	3	1.06	0.94;
	229	1	96	46	0	0	1	1.00808216	-11.4894575	138	3	1.06	0.94;
	230	2	0	0	0	0	1	1.04	-5.18679212	20	3	1.06	0.94;
	231	1	159	107	0	-300	1	1.02416885	-12.5989542	345	3	1.06	0.94;
	232	1	448	143	0	0	1	1.01112784	-14.689132	138	3	1.06	0.94;
	233	2	404	212	0	0	1	1	-17.53233	66	3	1.06	0.94;
	234	1	572	244	0	0	1	1.02456861	-8.44312209	138	3	1.06	0.94;
	235	1	269	157	0	0	1	1.00894329	-8.80296899	138	3	1.06	0.94;
	236	2	0	0	0	0	1	1.0165	-2.89652379	20	3	1.06	0.94;
	237	1	0	0	0	0	1	1.02152366	-12.402136	345	3	1.06	0.94;
	238	2	255	149	0	-150	1	1.01	-8.73167611	138	3	1.06	0.94;
	239	2	0	0	0	0	1	1	-3.65286276	138	3	1.06	0.94;
	240	1	0	0	0	-140	1	1.02353402	-11.7904769	230	3	1.06	0.94;
	241	2	0	0	0	0	1	1.05	-7.71638183	20	3	1.06	0.94;
	242	2	0	0	0	0	1	0.993	-6.11240547	138	3	1.06	0.94;
	243	2	8	3	0	0	1	1.01	-10.0475884	66	3	1.06	0.94;
	244	1	0	0	0	0	1	0.986196991	-11.3786724	66	3	1.06	0.94;
	245	1	61	30	0	0	1	0.976303467	-9.31037959	66	3	1.06	0.94;
	246	1	77	33	0	0	1	0.950544583	-13.5790601	66	3	1.06	0.94;
	247	1	61	30	0	0	1	0.979689586	-10.2712574	66	3	1.06	0.94;
	248	1	29	14	0	45.6	1	1.00342384	-13.6205851	66	3	1.06	0.94;
	249	1	29	14	0	0	1	1.00275143	-14.0221587	66	3	1.06	0.94;
	250	1	-23	-17	0	0	1	1.04600314	-12.260806	66	3	1.06	0.94;
	281	1	-33.1	-29.4	0	0	1	1.02486361	-11.7175533	230	3	1.06	0.94;
	319	1	115.8	-24	0	0	1	0.986732425	-61.5459829	230	1	1.06	0.94;
	320	1	2.4	-12.6	0	0	1	0.948269067	-67.0436898	115	1	1.06	0.94;
	322	1	2.4	-3.9	0	0	1	0.876047394	-46.5376519	115	1	1.06	0.94;
	323	1	-14.9	26.5	0	0	1	1.55525145	-172.98862	230	1	1.06	0.94;
	324	1	24.7	-1.2	0	0	1	0.972308185	-159.946794	115	1	1.06	0.94;
	526	1	145.3	-34.9	0	0	1	0.94072599	10.0637376	115	1	1.06	0.94;
	528	1	28.1	-20.5	0	0	1	1.42768205	166.881589	115	1	1.06	0.94;
	531	1	14	2.5	0	0	1	0.937470089	-17.7083155	115	1	1.06	0.94;
	552	1	-11.1	-1.4	0	0	1	0.995712067	-10.7715419	115	1	1.06	0.94;
	562	1	50.5	17.4	0	0	1	2.30915145	152.442987	230	1	1.06	0.94;
	609	1	29.6	0.6	0	0	1	0.954666355	-16.2588262	115	1	1.06	0.94;
	664	1	-113.7	76.7	0	0	1	0.960695659	-7.70177215	345	3	1.06	0.94;
	1190	1	100.31	29.17	0	0	1	1.0128756	-163.997904	86	2	1.06	0.94;
	1200	1	-100	34.17	0	0	1	1.01971101	-177.184433	86	2	1.06	0.94;
	1201	1	0	0	0	0	1	0.869388309	-171.309631	115	2	1.06	0.94;
	2040	1	0	0	0	0	1	0.925817961	-20.2838664	115	3	1.06	0.94;
	7001	2	0	0	0	0	1	1.0507	-50.665576	13.8	1	1.06	0.94;
	7002	2	0	0	0	0	1	1.0507	-14.4493766	13.8	1	1.06	0.94;
	7003	2	0	0	0	0	1	1.0323	-45.1530853	13.8	1	1.06	0.94;
	7011	2	0	0	0	0	1	1.0145	-58.0016429	13.8	1	1.06	0.94;
	7012	2	0	0	0	0	1	1.0507	-49.6807372	13.8	1	1.06	0.94;
	7017	2	0	0	0	0	1	1.0507	-50.1908646	13.8	1	1.06	0.94;
	7023	2	0	0	0	0	1	1.0507	-57.1849293	13.8	1	1.06	0.94;
	7024	2	0	0	0	0	1	1.029	-50.048548	13.8	1	1.06	0.94;
	7039	2	0	0	0	0	1	1.05	38.9171212	20	1	1.06	0.94;
	7044	2	0	0	0	0	1	1.0145	11.2404669	13.8	1	1.06	0.94;
	7049	3	0	0	0	0	1	1.0507	0	13.8	1	1.06	0.94;
	7055	2	0	0	0	0	1	0.9967	56.4646294	13.8	1	1.06	0.94;
	7057	2	0	0	0	0	1	1.0212	55.1184287	13.8	1	1.06	0.94;
	7061	2	0	0	0	0	1	1.0145	53.9277927	13.8	1	1.06	0.94;
	7062	2	0	0	0	0	1	1.0017	55.0750145	13.8	1	1.06	0.94;
	7071	2	0	0	0	0	1	0.9893	159.826634	13.8	1	1.06	0.94;
	7130	2	0	0	0	0	1	1.0507	-49.2274125	13.8	2	1.06	0.94;
	7139	2	0	0	0	0	1	1.0507	-91.0877217	13.8	2	1.06	0.94;
	7166	2	0	0	0	0	1	1.0145	-50.532785	13.8	2	1.06	0.94;
	9001	1	0	0	0	0	1	0.852229691	-32.2731416	115	9	1.06	0.94;
	9002	2	4.2	0	0	0	1	0.9945	-43.9260608	6.6	9	1.06	0.94;
	9003	1	2.71	0.94	0.14	2.4	1	0.69766066	-50.0354603	6.6	9	1.06	0.94;
	9004	1	0.86	0.28	0	0	1	0.689116178	-50.2493849	6.6	9	1.06	0.94;
	9005	1	0	0	0	0	1	0.858295062	-32.4432082	115	9	1.06	0.94;
	9006	1	0	0	0	0	1	0.79450741	-40.5946799	6.6	9	1.06	0.94;
	9007	1	0	0	0	0	1	0.790754222	-40.975616	6.6	9	1.06	0.94;
	9012	1	0	0	0	0	1	0.939940146	-39.84434	6.6	9	1.06	0.94;
	9021	1	4.75	1.56	0	0	1	0.988721543	-44.1467108	6.6	9	1.06	0.94;
	9022	1	1.53	0.53	0.08	0	1	0.964884438	-46.719155	0.6	9	1.06	0.94;
	9023	1	0	0	0	0	1	0.974703556	-44.4558763	6.6	9	1.06	0.94;
	9024	1	1.35	0.47	0.07	0	1	0.970503942	-46.4920611	0.6	9	1.06	0.94;
	9025	1	0.45	0.16	0.02	0	1	0.964756195	-45.5170466	0.6	9	1.06	0.94;
	9026	1	0.45	0.16	0.02	0	1	0.965606087	-45.4277855	0.6	9	1.06	0.94;
	9031	1	1.84	0.64	0.1	0	1	0.626315731	-58.6947684	0.6	9	1.06	0.94;
	9032	1	1.39	0.48	0.07	0	1	0.644181664	-56.7314682	0.6	9	1.06	0.94;
	9033	1	1.89	0.65	0.1	0	1	0.621901678	-59.2267892	0.6	9	1.06	0.94;
	9034	1	1.55	0.54	0.08	1.72	1	0.701328351	-52.2027218	0.6	9	1.06	0.94;
	9035	1	1.66	0.58	0.09	0	1	0.653235349	-55.6488271	0.6	9	1.06	0.94;
	9036	1	3.03	1	0	0	1	0.665611948	-54.9010873	2.3	9	1.06	0.94;
	9037	1	1.86	0.64	0.1	0	1	0.662400183	-54.6837449	0.6	9	1.06	0.94;
	9038	1	2.58	0.89	0.14	0	1	0.637043138	-57.683474	0.6	9	1.06	0.94;
	9041	1	1.01	0.35	0.05	0	1	0.671561744	-52.6529033	0.6	9	1.06	0.94;
	9042	1	0.81	0.28	0.04	0	1	0.653530325	-54.542429	0.6	9	1.06	0.94;
	9043	1	1.6	0.52	0	0	1	0.672896119	-52.8631386	2.3	9	1.06	0.94;
	9044	1	0	0	0	0	1	0.691977678	-50.1870702	6.6	9	1.06	0.94;
	9051	2	35.81	0	0	0	1	1	-42.0403092	13.8	9	1.06	0.94;
	9052	1	30	23	0	0	1	0.796449018	-40.1927479	13.8	9	1.06	0.94;
	9053	2	26.48	0	0	0	1	1	-40.074516	13.8	9	1.06	0.94;
	9054	2	0	0	0	0	1	1	-27.2993027	13.8	9	1.06	0.94;
	9055	2	0	0	0	0	1	1	-28.1130923	13.8	9	1.06	0.94;
	9071	1	1.02	0.35	0.05	0	1	0.771604679	-43.3942265	0.6	9	1.06	0.94;
	9072	1	1.02	0.35	0.05	0	1	0.777693031	-42.6418875	0.6	9	1.06	0.94;
	9121	1	3.8	1.25	0	0	1	0.916065561	-42.1134828	6.6	9	1.06	0.94;
	9533	1	1.19	0.41	0.1	0	1	1.04051734	-40.5883302	2.3	9	1.06	0.94;
];

%% generator data
%	bus	Pg	Qg	Qmax	Qmin	Vg	mBase	status	Pmax	Pmin	Pc1	Pc2	Qc1min	Qc1max	Qc2min	Qc2max	ramp_agc	ramp_10	ramp_30	ramp_q	apf
mpc.gen = [
	8	0	356.849613	10	-10	1.0153	100	1	100	0	0	0	0	0	0	0	0	0	0	0	0;
	10	0	254.02883	20	-20	1.0205	100	1	100	0	0	0	0	0	0	0	0	0	0	0	0;
	20	0	343.506537	20	-20	1.001	100	1	100	0	0	0	0	0	0	0	0	0	0	0	0;
	63	0	92.0447196	25	-25	0.9583	100	1	100	0	0	0	0	0	0	0	0	0	0	0	0;
	76	0	341.964039	35	12	0.9632	100	1	100	0	0	0	0	0	0	0	0	0	0	0	0;
	84	375	135.617471	240	-240	1.025	100	1	475	0	0	0	0	0	0	0	0	0	0	0	0;
	91	155	80.0668251	96	-11	1.052	100	1	255	0	0	0	0	0	0	0	0	0	0	0	0;
	92	290	1255.85054	153	-153	1.052	100	1	390	0	0	0	0	0	0	0	0	0	0	0	0;
	98	68	75.0799549	56	-30	1	100	1	168	0	0	0	0	0	0	0	0	0	0	0	0;
	108	117	2516.98954	77	-24	0.99	100	1	217	0	0	0	0	0	0	0	0	0	0	0	0;
	119	1930	1362.70153	1500	-500	1.0435	100	1	2030	0	0	0	0	0	0	0	0	0	0	0	0;
	124	240	150.524353	120	-60	1.0233	100	1	340	0	0	0	0	0	0	0	0	0	0	0	0;
	125	0	875.30346	200	-25	1.0103	100	1	100	0	0	0	0	0	0	0	0	0	0	0	0;
	138	0	375.712919	350	-125	1.055	100	1	100	0	0	0	0	0	0	0	0	0	0	0	0;
	141	281	158.186255	75	-50	1.051	100	1	381	0	0	0	0	0	0	0	0	0	0	0	0;
	143	696	474.749426	300	-100	1.0435	100	1	796	0	0	0	0	0	0	0	0	0	0	0	0;
	146	84	176.6634	35	-15	1.0528	100	1	184	0	0	0	0	0	0	0	0	0	0	0	0;
	147	217	-20.4032957	100	-50	1.0528	100	1	317	0	0	0	0	0	0	0	0	0	0	0	0;
	149	103	67.7761036	50	-25	1.0735	100	1	203	0	0	0	0	0	0	0	0	0	0	0	0;
	152	372	160.038681	175	-50	1.0535	100	1	472	0	0	0	0	0	0	0	0	0	0	0	0;
	153	216	91.9565987	90	-50	1.0435	100	1	316	0	0	0	0	0	0	0	0	0	0	0	0;
	156	0	202.220914	15	-10	0.963	100	1	100	0	0	0	0	0	0	0	0	0	0	0	0;
	170	205	468.715571	90	-40	0.929	100	1	305	0	0	0	0	0	0	0	0	0	0	0	0;
	171	0	418.559172	150	-50	0.9829	100	1	100	0	0	0	0	0	0	0	0	0	0	0	0;
	176	228	12.1200459	90	-45	1.0522	100	1	328	0	0	0	0	0	0	0	0	0	0	0	0;
	177	84	161.826977	35	-15	1.0077	100	1	184	0	0	0	0	0	0	0	0	0	0	0	0;
	185	200	215.153318	80	-50	1.0522	100	1	300	0	0	0	0	0	0	0	0	0	0	0	0;
	186	1200	393.251983	400	-100	1.065	100	1	1300	0	0	0	0	0	0	0	0	0	0	0	0;
	187	1200	393.432759	400	-100	1.065	100	1	1300	0	0	0	0	0	0	0	0	0	0	0	0;
	190	475	1755.23936	300	-300	1.0551	100	1	575	0	0	0	0	0	0	0	0	0	0	0	0;
	191	1973	792.809956	1000	-1000	1.0435	100	1	2073	0	0	0	0	0	0	0	0	0	0	0	0;
	198	424	249.651053	260	-260	1.015	100	1	524	0	0	0	0	0	0	0	0	0	0	0	0;
	213	272	61.6302432	150	-150	1.01	100	1	372	0	0	0	0	0	0	0	0	0	0	0	0;
	220	100	238.970465	60	-60	1.008	100	1	200	0	0	0	0	0	0	0	0	0	0	0	0;
	221	450	376.456827	320	-320	1	100	1	550	0	0	0	0	0	0	0	0	0	0	0	0;
	222	250	249.817787	300	-300	1.05	100	1	350	0	0	0	0	0	0	0	0	0	0	0	0;
	227	303	334.967823	300	-300	1	100	1	403	0	0	0	0	0	0	0	0	0	0	0	0;
	230	345	170.222874	250	-250	1.04	100	1	445	0	0	0	0	0	0	0	0	0	0	0	0;
	233	300	195.267635	500	-500	1	100	1	400	0	0	0	0	0	0	0	0	0	0	0	0;
	236	600	384.308276	300	-300	1.0165	100	1	700	0	0	0	0	0	0	0	0	0	0	0	0;
	238	250	321.516417	200	-200	1.01	100	1	350	0	0	0	0	0	0	0	0	0	0	0	0;
	239	550	68.3847608	400	-400	1	100	1	650	0	0	0	0	0	0	0	0	0	0	0	0;
	241	575.43	198.753012	600	-600	1.05	100	1	675.43	0	0	0	0	0	0	0	0	0	0	0	0;
	242	170	91.9047008	100	40	0.993	100	1	270	0	0	0	0	0	0	0	0	0	0	0	0;
	243	84	62.5806416	80	40	1.01	100	1	184	0	0	0	0	0	0	0	0	0	0	0	0;
	7001	467	509.009818	210	-210	1.0507	100	1	567	0	0	0	0	0	0	0	0	0	0	0	0;
	7002	623	106.756528	280	-280	1.0507	100	1	723	0	0	0	0	0	0	0	0	0	0	0	0;
	7003	1210	2572.33938	420	-420	1.0323	100	1	1310	0	0	0	0	0	0	0	0	0	0	0	0;
	7011	234	30.1170522	100	-100	1.0145	100	1	334	0	0	0	0	0	0	0	0	0	0	0	0;
	7012	372	545.519674	224	-224	1.0507	100	1	472	0	0	0	0	0	0	0	0	0	0	0	0;
	7017	330	1094.16856	350	0	1.0507	100	1	430	0	0	0	0	0	0	0	0	0	0	0	0;
	7023	185	83.9701822	120	0	1.0507	100	1	285	0	0	0	0	0	0	0	0	0	0	0	0;
	7024	410	192.195715	224	-224	1.029	100	1	510	0	0	0	0	0	0	0	0	0	0	0	0;
	7039	500	2693.36123	200	-200	1.05	100	1	600	0	0	0	0	0	0	0	0	0	0	0	0;
	7044	37	128.748543	42	0	1.0145	100	1	137	0	0	0	0	0	0	0	0	0	0	0	0;
	7049	2487.03994	2657.46007	10	0	1.0507	100	1	2399.01	0	0	0	0	0	0	0	0	0	0	0	0;
	7055	45	11.381128	25	0	0.9967	100	1	145	0	0	0	0	0	0	0	0	0	0	0	0;
	7057	165	80.5055315	90	-90	1.0212	100	1	265	0	0	0	0	0	0	0	0	0	0	0	0;
	7061	400	206.425584	150	-150	1.0145	100	1	500	0	0	0	0	0	0	0	0	0	0	0	0;
	7062	400	325.573163	150	0	1.0017	100	1	500	0	0	0	0	0	0	0	0	0	0	0	0;
	7071	116	-558.865141	87	0	0.9893	100	1	216	0	0	0	0	0	0	0	0	0	0	0	0;
	7130	1292	1328.08501	600	-100	1.0507	100	1	1392	0	0	0	0	0	0	0	0	0	0	0	0;
	7139	700	394.423509	325	-125	1.0507	100	1	800	0	0	0	0	0	0	0	0	0	0	0	0;
	7166	553	353.664127	300	-200	1.0145	100	1	653	0	0	0	0	0	0	0	0	0	0	0	0;
	9002	0	18.4302048	2	-2	0.9945	100	1	100	0	0	0	0	0	0	0	0	0	0	0	0;
	9051	0	51.8657407	17.35	-17.35	1	100	1	100	0	0	0	0	0	0	0	0	0	0	0	0;
	9053	0	50.1083275	12.83	-12.8	1	100	1	100	0	0	0	0	0	0	0	0	0	0	0	0;
	9054	50	118.945344	38	-38	1	100	1	150	0	0	0	0	0	0	0	0	0	0	0	0;
	9055	8	22.479021	6	-6	1	100	1	108	0	0	0	0	0	0	0	0	0	0	0	0;
];

%% branch data
%	fbus	tbus	r	x	b	rateA	rateB	rateC	ratio	angle	status	angmin	angmax	Pf	Qf	Pt	Qt
mpc.branch = [
	1	5	1e-05	6e-05	0	9900	0	0	0	0	1	-360	360	376.9926	375.5959	-373.9198	-357.1594;
	7001	1	0	0.0001953	0	9900	0	0	1	0	1	-360	360	466.9941	509.0098	-466.9941	-424.5944;
	2	6	1e-05	9e-05	0	9900	0	0	0	0	1	-360	360	120.1520	42.3677	-120.0000	-41.0000;
	2	8	6e-05	0.00027	0	9900	0	0	0	0	1	-360	360	443.2290	-3.4485	-432.1927	53.1122;
	7002	2	1e-05	0.000146	0	9900	0	0	1	0	1	-360	360	623.0000	106.7565	-619.3810	-53.9193;
	3	4	0	5e-05	0	9900	0	0	0.971	0	1	-360	360	-795.0547	1435.8106	795.0547	-1226.8246;
	3	7	0	3e-05	0	9900	0	0	0	0	1	-360	360	248.8772	-879.5186	-248.8772	920.7692;
	3	19	8e-05	0.00069	0	9900	0	0	0	0	1	-360	360	885.3717	1433.5570	-511.5919	1790.2938;
	3	150	1e-05	7e-05	0	9900	0	0	0	0	1	-360	360	584.2388	-44.2446	-578.5891	83.7928;
	7003	3	0	0.0001054	0	9900	0	0	1	0	1	-360	360	1209.4529	2572.3394	-1209.4529	-1773.1967;
	4	16	2e-05	0.00019	0	9900	0	0	0	0	1	-360	360	-531.3418	1177.7339	596.6376	-557.4237;
	7	5	0	0.00039	0	9900	0	0	0.948	0	1	-360	360	75.8222	-163.1640	-75.8222	180.3126;
	5	9	6e-05	0.00029	0	9900	0	0	0	0	1	-360	360	96.7872	46.8537	-95.9899	-43.0001;
	7	12	1e-05	9e-05	0	9900	0	0	0	0	1	-360	360	173.2825	-757.5367	-164.1553	839.6820;
	8	14	0.00013	0.00042	0	9900	0	0	0	0	1	-360	360	371.9731	289.7374	-343.9371	-199.1594;
	12	10	0	0.00053	0	9900	0	0	0.985	0	1	-360	360	152.9926	-184.2540	-152.9926	221.0288;
	11	13	8e-05	0.00034	0	9900	0	0	0	0	1	-360	360	151.0000	-1.2832	-149.2109	8.8868;
	7011	11	0	0.0001923	0	9900	0	0	1	0	1	-360	360	234.0000	30.1171	-234.0000	-19.7168;
	12	21	2e-05	0.00015	0	9900	0	0	0	0	1	-360	360	383.3908	-233.1037	-378.3703	270.7578;
	7012	12	0	0.000312	0	9900	0	0	1	0	1	-360	360	371.9817	545.5197	-371.9817	-422.3097;
	13	20	6e-05	0.00034	0	9900	0	0	0	0	1	-360	360	91.2109	-18.8868	-90.6898	21.8395;
	14	15	0.00014	0.00042	0	9900	0	0	0	0	1	-360	360	187.2127	139.4462	-176.7965	-108.1976;
	16	15	1e-05	0.00038	0	9900	0	0	0.971	0	1	-360	360	171.3187	-347.5407	-164.3869	610.9491;
	15	17	0.000194	0.000311	0	9900	0	0	0.9561	0	1	-360	360	284.5171	-509.7370	-179.8609	677.5106;
	16	42	2e-05	0.00022	0	9900	0	0	0	0	1	-360	360	-179.3529	711.0315	232.0180	-131.7148;
	7017	17	0	0.0001654	0	9900	0	0	0.942	0	1	-360	360	328.4513	1094.1686	-328.4513	-920.6609;
	19	87	0.00013	0.0008	0	9900	0	0	0	0	1	-360	360	1157.5736	656.8845	-847.2139	1253.0216;
	21	20	0	0.00014	0	9900	0	0	0.952	0	1	-360	360	514.3072	-159.0270	-514.3072	201.6671;
	21	24	4e-05	0.00034	0	9900	0	0	0	0	1	-360	360	-212.8735	-112.7321	215.5650	135.6091;
	22	23	0.00052	0.00111	0	9900	0	0	0	0	1	-360	360	-81.0000	-23.0000	85.0054	31.5501;
	24	23	0	0.00064	0	9900	0	0	0.943	0	1	-360	360	77.6288	14.8557	-77.6288	-11.1674;
	23	25	0.00019	0.00039	0	9900	0	0	0	0	1	-360	360	156.6234	47.9881	-151.8466	-38.1830;
	7023	23	0	0.00023	0	9900	0	0	1	0	1	-360	360	185.0000	83.9702	-185.0000	-75.3708;
	24	319	7e-05	0.00068	0	9900	0	0	0	0	1	-360	360	116.8052	-14.2323	-115.7998	24.0000;
	7024	24	0	0.000289	0	9900	0	0	1	0	1	-360	360	409.9997	192.1957	-409.9997	-136.2324;
	25	26	0.00036	0.00071	0	9900	0	0	0	0	1	-360	360	106.8466	26.1830	-102.3787	-17.3714;
	26	27	0.00045	0.0012	0	9900	0	0	0	0	1	-360	360	71.9001	20.7336	-69.0000	-13.0000;
	26	320	0.00043	0.0013	0	9900	0	0	0	0	1	-360	360	2.4787	-12.3622	-2.4000	12.6000;
	33	34	0	0.00063	0	9900	0	0	0	0	1	-360	360	-7.7716	-7.0639	7.7716	14.9384;
	33	40	6e-05	0.00029	0	9900	0	0	0	0	1	-360	360	3.7026	6.0602	-3.3597	-4.4027;
	34	42	1e-05	8e-05	0	9900	0	0	0	0	1	-360	360	-15.4742	-23.7848	15.8291	26.6242;
	36	35	0	0.00047	0	9900	0	0	1.01	0	1	-360	360	88.3231	-190.4443	-88.3231	220.8170;
	35	76	6e-05	0.00014	0	9900	0	0	0	0	1	-360	360	89.6599	-220.5643	-85.7739	229.6317;
	36	88	4e-05	0.00027	0	9900	0	0	0	0	1	-360	360	-82.6887	189.6649	85.1502	-173.0496;
	37	49	0.00017	0.00081	0	9900	0	0	0	0	1	-360	360	-130.4375	110.5282	137.1803	-78.4011;
	37	9001	6e-07	4.6e-06	0	9900	0	75	1.0082	0	1	-360	360	69.3296	-146.6844	-69.3078	146.8514;
	38	41	8e-05	0.00037	0	9900	0	0	0	0	1	-360	360	-1660.8918	1945.3055	2029.2027	-241.8678;
	38	43	0.00032	0.00087	0	9900	0	0	0	0	1	-360	360	1373.7250	-218.1260	-938.0868	1402.5176;
	39	42	6e-06	6.4e-05	0	9900	0	0	0	0	1	-360	360	138.6452	750.5597	-104.0078	-381.0944;
	7039	39	0	0.0003159	0	9900	0	0	0.965	0	1	-360	360	292.2586	2693.3612	-292.2586	-734.9737;
	40	48	0.00026	0.00154	0	9900	0	0	0	0	1	-360	360	0.3296	5.6399	1.2167	3.5193;
	41	42	0	0.00029	0	9900	0	0	0	0	1	-360	360	-521.4928	2987.8944	521.4928	-46.8083;
	41	49	0.00065	0.00191	0	9900	0	0	0	0	1	-360	360	-155.9237	202.4668	202.7194	-64.9592;
	42	46	2e-05	0.00014	0	9900	0	0	0	0	1	-360	360	48.7704	-373.5201	56.2147	1108.4162;
	43	53	0.00013	0.00039	0	9900	0	0	0	0	1	-360	360	1137.6539	-410.0822	-1046.7472	682.8022;
	45	44	0	0.0002	0	9900	0	0	1.008	0	1	-360	360	222.1510	-39.0151	-222.1510	53.0644;
	44	47	0.00027	0.00084	0	9900	0	0	0	0	1	-360	360	79.2117	21.2432	-76.7664	-13.6355;
	7044	44	0	0.0018181	0	9900	0	0	0.942	0	1	-360	360	35.9787	128.7485	-35.9787	-100.7358;
	45	46	0	0.00021	0	9900	0	0	1	0	1	-360	360	82.4775	1527.0129	-82.4775	-859.6158;
	45	60	7e-05	0.00041	0	9900	0	0	0	0	1	-360	360	-435.8316	134.6235	455.6254	-18.6888;
	45	74	9e-05	0.00054	0	9900	0	0	0	0	1	-360	360	-2012.5222	-214.9805	2513.5547	3221.1758;
	46	81	5e-05	0.00042	0	9900	0	0	0	0	1	-360	360	183.5868	-280.3616	-159.6563	481.3782;
	47	113	0.00043	0.00118	0	9900	0	0	0	0	1	-360	360	23.5754	1.6461	-23.2176	-0.6642;
	49	51	0.00031	0.00094	0	9900	0	0	0	0	1	-360	360	48.4885	43.6370	-46.3927	-37.2820;
	7049	49	0	0.000124	0	9900	0	0	1	0	1	-360	360	2487.0399	2657.4601	-2487.0399	-1169.4808;
	51	52	0.00037	0.00109	0	9900	0	0	0	0	1	-360	360	47.7895	33.7226	-45.3737	-26.6056;
	54	55	0.00035	0.00103	0	9900	0	0	0	0	1	-360	360	-10.0000	-1.0000	10.0329	1.0969;
	55	57	0.00065	0.00169	0	9900	0	0	0	0	1	-360	360	12.9673	-3.4893	-12.8590	3.7709;
	7055	55	0	0.0019607	0	9900	0	0	0.942	0	1	-360	360	45.0000	11.3811	-45.0000	-7.6077;
	57	58	0.00046	0.0008	0	9900	0	0	0	0	1	-360	360	79.8678	41.1346	-76.4230	-35.1437;
	7057	57	0	0.0005347	0	9900	0	0	0.95	0	1	-360	360	164.9994	80.5055	-164.9994	-64.9085;
	58	59	9e-05	0.00026	0	9900	0	0	0	0	1	-360	360	62.4270	34.1449	-61.9447	-32.7517;
	59	61	2e-05	0.00013	0	9900	0	0	0	0	1	-360	360	-156.0300	-73.2446	156.6785	77.4599;
	60	62	9e-05	0.00065	0	9900	0	0	0	0	1	-360	360	-479.2916	22.4988	507.4677	180.9956;
	62	61	0	0.00059	0	9900	0	0	0.975	0	1	-360	360	-16.2852	28.5266	16.2852	-27.8739;
	7061	61	0	0.000238	0	9900	0	0	1	0	1	-360	360	399.9795	206.4256	-399.9795	-159.5764;
	62	64	0.00016	0.00105	0	9900	0	0	0	0	1	-360	360	231.0584	30.3207	-221.6872	31.1779;
	62	144	1e-05	7e-05	0	9900	0	0	0	0	1	-360	360	-332.4137	8.1157	333.6061	0.2314;
	7062	62	0	0.0003214	0	9900	0	0	0.95	0	1	-360	360	399.7244	325.5732	-399.7244	-248.7423;
	63	64	0	0.00038	0	9900	0	0	1.017	0	1	-360	360	-221.9724	53.5444	221.9724	-31.2301;
	63	526	0.000265	0.00172	0	9900	0	0	0	0	1	-360	360	151.9867	8.5003	-145.3000	34.9000;
	201	69	0	0.00098	0	9900	0	0	1.03	0	1	-360	360	-40.4075	-13.9274	40.4075	16.7426;
	69	211	0.00051	0.00232	0	9900	0	0	0	0	1	-360	360	-40.5629	-16.7963	42.0391	23.5112;
	70	71	0.00032	0.001	0	9900	0	0	0	0	1	-360	360	179.9739	-28.5086	-174.7149	44.9430;