function mpc = case300_tree

%% MATPOWER Case Format : Version 2
mpc.version = '2';

%%-----  Power Flow Data  -----%%
%% system MVA base
mpc.baseMVA = 1;

%% bus data
%	bus_i	type	Pd	Qd	Gs	Bs	area	Vm	Va	baseKV	zone	Vmax	Vmin
mpc.bus = [
	1	1	90	49	0	0	1	1.0284	5.95	115	1	1.06	0.94;
	2	1	56	15	0	0	1	1.0354	7.74	115	1	1.06	0.94;
	3	1	20	0	0	0	1	0.9971	6.64	230	1	1.06	0.94;
	4	1	0	0	0	0	1	1.0308	4.71	345	1	1.06	0.94;
	5	1	353	130	0	0	1	1.0191	4.68	115	1	1.06	0.94;
	6	1	120	41	0	0	1	1.0312	6.99	115	1	1.06	0.94;
	7	1	0	0	0	0	1	0.9934	6.19	230	1	1.06	0.94;
	8	2	63	14	0	0	1	1.0153	2.4	115	1	1.06	0.94;
	9	1	96	43	0	0	1	1.0034	2.85	115	1	1.06	0.94;
	10	2	153	33	0	0	1	1.0205	1.35	230	1	1.06	0.94;
	11	1	83	21	0	0	1	1.0057	2.46	115	1	1.06	0.94;
	12	1	0	0	0	0	1	0.9974	5.21	230	1	1.06	0.94;
	13	1	58	10	0	0	1	0.9977	-0.55	115	1	1.06	0.94;
	14	1	160	60	0	0	1	0.9991	-4.81	115	1	1.06	0.94;
	15	1	126.7	23	0	0	1	1.0343	-8.59	115	1	1.06	0.94;
	16	1	0	0	0	0	1	1.0315	-2.65	345	1	1.06	0.94;
	17	1	561	220	0	0	1	1.0649	-13.1	115	1	1.06	0.94;
	19	1	0	0	0	0	1	0.982	1.08	230	1	1.06	0.94;
	20	2	605	120	0	0	1	1.001	-2.46	115	1	1.06	0.94;
	21	1	77	1	0	0	1	0.9752	1.62	230	1	1.06	0.94;
	22	1	81	23	0	0	1	0.9963	-1.97	115	1	1.06	0.94;
	23	1	21	7	0	0	1	1.0501	3.94	115	1	1.06	0.94;
	24	1	0	0	0	0	1	1.0057	6.02	230	1	1.06	0.94;
	25	1	45	12	0	0	1	1.0234	1.44	115	1	1.06	0.94;
	26	1	28	9	0	0	1	0.9986	-1.73	115	1	1.06	0.94;
	27	1	69	13	0	0	1	0.975	-4.9	115	1	1.06	0.94;
	33	1	55	6	0	0	1	1.0244	-12.02	115	1	1.06	0.94;
	34	1	0	0	0	0	1	1.0414	-7.94	345	1	1.06	0.94;
	35	1	0	0	0	0	1	0.9757	-25.72	115	1	1.06	0.94;
	36	1	0	0	0	0	1	1.0011	-22.59	230	1	1.06	0.94;
	37	1	85	32	0	0	1	1.0201	-11.23	115	1	1.06	0.94;
	38	1	155	18	0	0	1	1.0202	-12.56	115	1	1.06	0.94;
	39	1	0	0	0	0	1	1.0535	-5.81	345	1	1.06	0.94;
	40	1	46	-21	0	0	1	1.0216	-12.78	115	1	1.06	0.94;
	41	1	86	0	0	0	1	1.0292	-10.45	115	1	1.06	0.94;
	42	1	0	0	0	0	1	1.0448	-7.44	345	1	1.06	0.94;
	43	1	39	9	0	0	1	1.0006	-16.79	115	1	1.06	0.94;
	44	1	195	29	0	0	1	1.0086	-17.47	115	1	1.06	0.94;
	45	1	0	0	0	0	1	1.0215	-14.74	230	1	1.06	0.94;
	46	1	0	0	0	0	1	1.0344	-11.75	345	1	1.06	0.94;
	47	1	58	11.8	0	0	1	0.9777	-23.17	115	1	1.06	0.94;
	48	1	41	19	0	0	1	1.0019	-16.09	115	1	1.06	0.94;
	49	1	92	26	0	0	1	1.0475	-2.95	115	1	1.06	0.94;
	51	1	-5	5	0	0	1	1.0253	-8.15	115	1	1.06	0.94;
	52	1	61	28	0	0	1	0.9979	-11.86	115	1	1.06	0.94;
	53	1	69	3	0	0	1	0.9959	-17.6	115	1	1.06	0.94;
	54	1	10	1	0	0	1	1.005	-16.25	115	1	1.06	0.94;
	55	1	22	10	0	0	1	1.015	-12.21	115	1	1.06	0.94;
	57	1	98	20	0	0	1	1.0335	-8	115	1	1.06	0.94;
	58	1	14	1	0	0	1	0.9918	-5.99	115	1	1.06	0.94;
	59	1	218	106	0	0	1	0.9789	-5.29	115	1	1.06	0.94;
	60	1	0	0	0	0	1	1.0246	-9.56	230	1	1.06	0.94;
	61	1	227	110	0	0	1	0.9906	-3.47	115	1	1.06	0.94;
	62	1	0	0	0	0	1	1.016	-1.1	230	1	1.06	0.94;
	63	2	70	30	0	0	1	0.9583	-17.62	115	1	1.06	0.94;
	64	1	0	0	0	0	1	0.948	-12.97	230	1	1.06	0.94;
	69	1	0	0	0	0	1	0.963	-25.66	115	1	1.06	0.94;
	70	1	56	20	0	0	1	0.9513	-35.16	115	1	1.06	0.94;
	71	1	116	38	0	0	1	0.9793	-29.88	115	1	1.06	0.94;
	72	1	57	19	0	0	1	0.9696	-27.48	115	1	1.06	0.94;
	73	1	224	71	0	0	1	0.9775	-25.77	115	1	1.06	0.94;
	74	1	0	0	0	0	1	0.9964	-22	230	1	1.06	0.94;
	76	2	208	107	0	0	1	0.9632	-26.54	115	1	1.06	0.94;
	77	1	74	28	0	0	1	0.9837	-24.94	115	1	1.06	0.94;
	78	1	0	0	0	0	1	0.99	-24.05	115	1	1.06	0.94;
	79	1	48	14	0	0	1	0.982	-24.97	115	1	1.06	0.94;
	80	1	28	7	0	0	1	0.9872	-24.97	115	1	1.06	0.94;
	81	1	0	0	0	0	1	1.034	-18.89	345	1	1.06	0.94;
	84	2	37	13	0	0	1	1.025	-17.16	115	1	1.06	0.94;
	85	1	0	0	0	0	1	0.9872	-17.68	230	1	1.06	0.94;
	86	1	0	0	0	0	1	0.9909	-14.19	230	1	1.06	0.94;
	87	1	0	0	0	0	1	0.9921	-7.77	230	1	1.06	0.94;
	88	1	0	0	0	0	1	1.0151	-20.96	230	1	1.06	0.94;
	89	1	44.2	0	0	0	1	1.0317	-11.13	115	1	1.06	0.94;
	90	1	66	0	0	0	1	1.0272	-11.23	115	1	1.06	0.94;
	91	2	17.4	0	0	0	1	1.052	-9.4	115	1	1.06	0.94;
	92	2	15.8	0	0	0	1	1.052	-6.2	115	1	1.06	0.94;
	94	1	60.3	0	0	0	1	0.993	-9.42	115	1	1.06	0.94;
	97	1	39.9	0	0	0	1	1.0183	-13.24	115	1	1.06	0.94;
	98	2	66.7	0	0	0	1	1	-14.6	115	1	1.06	0.94;
	99	1	83.5	0	0	0	1	0.9894	-20.27	115	1	1.06	0.94;
	100	1	0	0	0	0	1	1.006	-14.45	115	1	1.06	0.94;
	102	1	77.8	0	0	0	1	1.0008	-15.23	115	1	1.06	0.94;
	103	1	32	0	0	0	1	1.0288	-12.06	115	1	1.06	0.94;
	104	1	8.6	0	0	0	1	0.9958	-17.33	115	1	1.06	0.94;
	105	1	49.6	0	0	0	1	1.0223	-12.94	115	1	1.06	0.94;
	107	1	4.6	0	0	0	1	1.0095	-16.03	115	1	1.06	0.94;
	108	2	112.1	0	0	0	1	0.99	-20.26	115	1	1.06	0.94;
	109	1	30.7	0	0	0	1	0.9749	-26.06	115	1	1.06	0.94;
	110	1	63	0	0	0	1	0.973	-24.72	115	1	1.06	0.94;
	112	1	19.6	0	0	0	1	0.9725	-28.69	115	1	1.06	0.94;
	113	1	26.2	0	0	0	1	0.97	-25.38	115	1	1.06	0.94;
	114	1	18.2	0	0	0	1	0.9747	-28.59	115	1	1.06	0.94;
	115	1	0	0	0	0	1	0.9603	-13.57	115	2	1.06	0.94;
	116	1	0	0	0	0	1	1.0249	-12.69	115	2	1.06	0.94;
	117	1	0	0	0	325	1	0.9348	-4.72	115	2	1.06	0.94;
	118	1	14.1	650	0	0	1	0.9298	-4.12	115	2	1.06	0.94;
	119	2	0	0	0	0	1	1.0435	5.17	115	2	1.06	0.94;
	120	1	777	215	0	55	1	0.9584	-8.77	115	2	1.06	0.94;
	121	1	535	55	0	0	1	0.9871	-12.64	115	2	1.06	0.94;
	122	1	229.1	11.8	0	0	1	0.9728	-14.36	115	2	1.06	0.94;
	123	1	78	1.4	0	0	1	1.0006	-17.64	115	2	1.06	0.94;
	124	2	276.4	59.3	0	0	1	1.0233	-13.49	115	2	1.06	0.94;
	125	2	514.8	82.7	0	0	1	1.0103	-18.43	115	2	1.06	0.94;
	126	1	57.9	5.1	0	0	1	0.9978	-12.86	115	2	1.06	0.94;
	127	1	380.8	37	0	0	1	1.0001	-10.52	230	2	1.06	0.94;
	128	1	0	0	0	0	1	1.0024	-4.78	230	2	1.06	0.94;
	129	1	0	0	0	0	1	1.0028	-4.4	230	2	1.06	0.94;
	130	1	0	0	0	0	1	1.0191	5.56	230	2	1.06	0.94;
	131	1	0	0	0	0	1	0.9861	6.06	230	2	1.06	0.94;
	132	1	0	0	0	0	1	1.0045	3.04	230	2	1.06	0.94;
	133	1	0	0	0	0	1	1.002	-5.46	230	2	1.06	0.94;
	134	1	0	0	0	0	1	1.022	-8.04	230	2	1.06	0.94;
	135	1	169.2	41.6	0	0	1	1.0193	-6.76	230	2	1.06	0.94;
	136	1	55.2	18.2	0	0	1	1.0476	1.54	230	2	1.06	0.94;
	137	1	273.6	99.8	0	0	1	1.0471	-1.45	230	2	1.06	0.94;
	138	2	1019.2	135.2	0	0	1	1.055	-6.35	230	2	1.06	0.94;
	139	1	595	83.3	0	0	1	1.0117	-3.57	115	2	1.06	0.94;
	140	1	387.7	114.7	0	0	1	1.043	-3.44	230	2	1.06	0.94;
	141	2	145	58	0	0	1	1.051	0.05	230	2	1.06	0.94;
	142	1	56.5	24.5	0	0	1	1.0155	-2.77	230	2	1.06	0.94;
	143	2	89.5	35.5	0	0	1	1.0435	4.03	230	2	1.06	0.94;
	144	1	0	0	0	0	1	1.016	-0.7	230	2	1.06	0.94;
	145	1	24	14	0	0	1	1.0081	-0.16	230	2	1.06	0.94;
	146	2	0	0	0	0	1	1.0528	4.32	230	2	1.06	0.94;
	147	2	0	0	0	0	1	1.0528	8.36	230	2	1.06	0.94;
	148	1	63	25	0	0	1	1.0577	0.28	230	2	1.06	0.94;
	149	2	0	0	0	0	1	1.0735	5.23	230	2	1.06	0.94;
	150	1	0	0	0	0	1	0.9869	6.34	230	2	1.06	0.94;
	151	1	0	0	0	0	1	1.0048	4.13	230	2	1.06	0.94;
	152	2	17	9	0	0	1	1.0535	9.24	230	2	1.06	0.94;
	153	2	0	0	0	0	1	1.0435	10.46	230	2	1.06	0.94;
	154	1	70	5	0	34.5	1	0.9663	-1.8	115	2	1.06	0.94;
	155	1	200	50	0	0	1	1.0177	6.75	230	2	1.06	0.94;
	156	2	75	50	0	0	1	0.963	5.15	115	2	1.06	0.94;
	157	1	123.5	-24.3	0	0	1	0.9845	-11.93	230	2	1.06	0.94;
	158	1	0	0	0	0	1	0.9987	-11.4	230	2	1.06	0.94;
	159	1	33	16.5	0	0	1	0.9867	-9.82	230	2	1.06	0.94;
	160	1	0	0	0	0	1	0.9998	-12.55	230	2	1.06	0.94;
	161	1	35	15	0	0	1	1.036	8.85	230	2	1.06	0.94;
	162	1	85	24	0	0	1	0.9918	18.5	230	2	1.06	0.94;
	163	1	0	0.4	0	0	1	1.041	2.91	230	2	1.06	0.94;
	164	1	0	0	0	-212	1	0.9839	9.66	230	2	1.06	0.94;
	165	1	0	0	0	0	1	1.0002	26.31	230	2	1.06	0.94;
	166	1	0	0	0	-103	1	0.9973	30.22	230	2	1.06	0.94;
	167	1	299.9	95.7	0	0	1	0.9715	-6.91	230	2	1.06	0.94;
	168	1	0	0	0	0	1	1.0024	-4.8	230	2	1.06	0.94;
	169	1	0	0	0	0	1	0.9879	-6.68	230	2	1.06	0.94;
	170	2	481.8	205	0	0	1	0.929	0.09	115	2	1.06	0.94;
	171	2	763.6	291.1	0	0	1	0.9829	-9.94	115	2	1.06	0.94;
	172	1	26.5	0	0	0	1	1.0244	-6.22	115	2	1.06	0.94;
	173	1	163.5	43	0	53	1	0.9837	-12.75	115	2	1.06	0.94;
	174	1	0	0	0	0	1	1.0622	-2.69	115	2	1.06	0.94;
	175	1	176	83	0	0	1	0.973	-7.21	115	2	1.06	0.94;
	176	2	5	4	0	0	1	1.0522	4.67	115	2	1.06	0.94;
	177	2	28	12	0	0	1	1.0077	0.62	115	2	1.06	0.94;
	178	1	427.4	173.6	0	0	1	0.9397	-6.56	115	2	1.06	0.94;
	179	1	74	29	0	45	1	0.9699	-9.37	115	2	1.06	0.94;
	180	1	69.5	49.3	0	0	1	0.9793	-3.09	115	2	1.06	0.94;
	181	1	73.4	0	0	0	1	1.0518	-1.33	230	2	1.06	0.94;
	182	1	240.7	89	0	0	1	1.0447	-4.19	230	2	1.06	0.94;
	183	1	40	4	0	0	1	0.9717	7.12	115	2	1.06	0.94;
	184	1	136.8	16.6	0	0	1	1.0386	-6.85	230	2	1.06	0.94;
	185	2	0	0	0	0	1	1.0522	-4.33	230	2	1.06	0.94;
	186	2	59.8	24.3	0	0	1	1.065	2.17	230	2	1.06	0.94;
	187	2	59.8	24.3	0	0	1	1.065	1.4	230	2	1.06	0.94;
	188	1	182.6	43.6	0	0	1	1.0533	-0.72	230	2	1.06	0.94;
	189	1	7	2	0	0	1	0.9975	-25.84	66	3	1.06	0.94;
	190	2	0	0	0	-150	1	1.0551	-20.62	345	3	1.06	0.94;
	191	2	489	53	0	0	1	1.0435	12.25	230	3	1.06	0.94;
	192	1	800	72	0	0	1	0.9374	-11.18	230	3	1.06	0.94;
	193	1	0	0	0	0	1	0.9897	-26.09	66	3	1.06	0.94;
	194	1	0	0	0	0	1	1.0489	-19.21	345	3	1.06	0.94;
	195	1	0	0	0	0	1	1.0357	-20.79	345	3	1.06	0.94;
	196	1	10	3	0	0	1	0.9695	-25.32	115	3	1.06	0.94;
	197	1	43	14	0	0	1	0.9907	-23.72	115	3	1.06	0.94;
	198	2	64	21	0	0	1	1.015	-20.58	115	3	1.06	0.94;
	199	1	35	12	0	0	1	0.9528	-26.05	115	3	1.06	0.94;
	200	1	27	12	0	0	1	0.955	-25.93	115	3	1.06	0.94;
	201	1	41	14	0	0	1	0.9692	-27.49	66	1	1.06	0.94;
	202	1	38	13	0	0	1	0.9908	-25.33	66	3	1.06	0.94;
	203	1	42	14	0	0	1	1.0033	-22.35	115	3	1.06	0.94;
	204	1	72	24	0	0	1	0.9718	-25.7	66	3	1.06	0.94;
	205	1	0	-5	0	0	1	0.9838	-26.07	66	3	1.06	0.94;
	206	1	12	2	0	0	1	0.9992	-27.41	66	3	1.06	0.94;
	207	1	-21	-14.2	0	0	1	1.0137	-27.44	66	1	1.06	0.94;
	208	1	7	2	0	0	1	0.9929	-26.28	66	3	1.06	0.94;
	209	1	38	13	0	0	1	0.9999	-25.66	66	3	1.06	0.94;
	210	1	0	0	0	0	1	0.9788	-24.22	115	3	1.06	0.94;
	211	1	96	7	0	0	1	1.0017	-23.31	115	3	1.06	0.94;
	212	1	0	0	0	0	1	1.0132	-22.51	138	3	1.06	0.94;
	213	2	0	0	0	0	1	1.01	-11.67	16.5	3	1.06	0.94;
	214	1	22	16	0	0	1	0.9919	-17.53	138	3	1.06	0.94;
	215	1	47	26	0	0	1	0.9866	-20.23	138	3	1.06	0.94;
	216	1	176	105	0	0	1	0.9751	-22.53	138	3	1.06	0.94;
	217	1	100	75	0	0	1	1.0215	-22.2	138	3	1.06	0.94;
	218	1	131	96	0	0	1	1.0075	-22.63	138	3	1.06	0.94;
	219	1	0	0	0	0	1	1.0554	-21.15	345	3	1.06	0.94;
	220	2	285	100	0	0	1	1.008	-21.73	138	3	1.06	0.94;
	221	2	171	70	0	0	1	1	-22.49	138	3	1.06	0.94;
	222	2	328	188	0	0	1	1.05	-23.17	20	3	1.06	0.94;
	223	1	428	232	0	0	1	0.9965	-22.7	138	3	1.06	0.94;
	224	1	173	99	0	0	1	1.0002	-21.55	230	3	1.06	0.94;
	225	1	410	40	0	0	1	0.9453	-11.34	230	3	1.06	0.94;
	226	1	0	0	0	0	1	1.018	-21.61	230	3	1.06	0.94;
	227	2	538	369	0	0	1	1	-27.22	27	3	1.06	0.94;
	228	1	223	148	0	0	1	1.0423	-20.94	138	3	1.06	0.94;
	229	1	96	46	0	0	1	1.0496	-19.94	138	3	1.06	0.94;
	230	2	0	0	0	0	1	1.04	-13.82	20	3	1.06	0.94;
	231	1	159	107	0	-300	1	1.0535	-21.22	345	3	1.06	0.94;
	232	1	448	143	0	0	1	1.0414	-23.19	138	3	1.06	0.94;
	233	2	404	212	0	0	1	1	-25.9	66	3	1.06	0.94;
	234	1	572	244	0	0	1	1.0387	-20.89	138	3	1.06	0.94;
	235	1	269	157	0	0	1	1.0095	-21.03	138	3	1.06	0.94;
	236	2	0	0	0	0	1	1.0165	-15.4	20	3	1.06	0.94;
	237	1	0	0	0	0	1	1.0558	-21.1	345	3	1.06	0.94;
	238	2	255	149	0	-150	1	1.01	-20.94	138	3	1.06	0.94;
	239	2	0	0	0	0	1	1	-15.86	138	3	1.06	0.94;
	240	1	0	0	0	-140	1	1.0237	-20.14	230	3	1.06	0.94;
	241	2	0	0	0	0	1	1.05	-16.5	20	3	1.06	0.94;
	242	2	0	0	0	0	1	0.993	-17.53	138	3	1.06	0.94;
	243	2	8	3	0	0	1	1.01	-19.27	66	3	1.06	0.94;
	244	1	0	0	0	0	1	0.9921	-20.21	66	3	1.06	0.94;
	245	1	61	30	0	0	1	0.9711	-20.9	66	3	1.06	0.94;
	246	1	77	33	0	0	1	0.9651	-21.74	66	3	1.06	0.94;
	247	1	61	30	0	0	1	0.9688	-21.67	66	3	1.06	0.94;
	248	1	29	14	0	45.6	1	0.976	-25.23	66	3	1.06	0.94;
	249	1	29	14	0	0	1	0.9752	-25.65	66	3	1.06	0.94;
	250	1	-23	-17	0	0	1	1.0196	-23.8	66	3	1.06	0.94;
	281	1	-33.1	-29.4	0	0	1	1.0251	-20.06	230	3	1.06	0.94;
	319	1	115.8	-24	0	0	1	1.0152	1.48	230	1	1.06	0.94;
	320	1	2.4	-12.6	0	0	1	1.0146	-2.23	115	1	1.06	0.94;
	322	1	2.4	-3.9	0	0	1	1.0005	-17.61	115	1	1.06	0.94;
	323	1	-14.9	26.5	0	0	1	0.981	-13.69	230	1	1.06	0.94;
	324	1	24.7	-1.2	0	0	1	0.975	-23.42	115	1	1.06	0.94;
	526	1	145.3	-34.9	0	0	1	0.9429	-34.31	115	1	1.06	0.94;
	528	1	28.1	-20.5	0	0	1	0.9723	-37.58	115	1	1.06	0.94;
	531	1	14	2.5	0	0	1	0.9604	-29.1	115	1	1.06	0.94;
	552	1	-11.1	-1.4	0	0	1	1.0009	-23.36	115	1	1.06	0.94;
	562	1	50.5	17.4	0	0	1	0.9777	-28	230	1	1.06	0.94;
	609	1	29.6	0.6	0	0	1	0.9583	-28.79	115	1	1.06	0.94;
	664	1	-113.7	76.7	0	0	1	1.0309	-17	345	3	1.06	0.94;
	1190	1	100.31	29.17	0	0	1	1.0128	3.9	86	2	1.06	0.94;
	1200	1	-100	34.17	0	0	1	1.0244	-7.52	86	2	1.06	0.94;
	1201	1	0	0	0	0	1	1.0122	-15.18	115	2	1.06	0.94;
	2040	1	0	0	0	0	1	0.9653	-14.94	115	3	1.06	0.94;
	7001	2	0	0	0	0	1	1.0507	10.79	13.8	1	1.06	0.94;
	7002	2	0	0	0	0	1	1.0507	12.48	13.8	1	1.06	0.94;
	7003	2	0	0	0	0	1	1.0323	13.76	13.8	1	1.06	0.94;
	7011	2	0	0	0	0	1	1.0145	4.99	13.8	1	1.06	0.94;
	7012	2	0	0	0	0	1	1.0507	11.57	13.8	1	1.06	0.94;
	7017	2	0	0	0	0	1	1.0507	-10.47	13.8	1	1.06	0.94;
	7023	2	0	0	0	0	1	1.0507	6.15	13.8	1	1.06	0.94;
	7024	2	0	0	0	0	1	1.029	12.6	13.8	1	1.06	0.94;
	7039	2	0	0	0	0	1	1.05	2.11	20	1	1.06	0.94;
	7044	2	0	0	0	0	1	1.0145	-13.92	13.8	1	1.06	0.94;
	7049	3	0	0	0	0	1	1.0507	0	13.8	1	1.06	0.94;
	7055	2	0	0	0	0	1	0.9967	-7.5	13.8	1	1.06	0.94;
	7057	2	0	0	0	0	1	1.0212	-3.44	13.8	1	1.06	0.94;
	7061	2	0	0	0	0	1	1.0145	1.97	13.8	1	1.06	0.94;
	7062	2	0	0	0	0	1	1.0017	5.8	13.8	1	1.06	0.94;
	7071	2	0	0	0	0	1	0.9893	-25.35	13.8	1	1.06	0.94;
	7130	2	0	0	0	0	1	1.0507	19.02	13.8	2	1.06	0.94;
	7139	2	0	0	0	0	1	1.0507	2.75	13.8	2	1.06	0.94;
	7166	2	0	0	0	0	1	1.0145	35.05	13.8	2	1.06	0.94;
	9001	1	0	0	0	0	1	1.0117	-11.25	115	9	1.06	0.94;
	9002	2	4.2	0	0	0	1	0.9945	-18.86	6.6	9	1.06	0.94;
	9003	1	2.71	0.94	0.14	2.4	1	0.9833	-19.68	6.6	9	1.06	0.94;
	9004	1	0.86	0.28	0	0	1	0.9768	-19.82	6.6	9	1.06	0.94;
	9005	1	0	0	0	0	1	1.0117	-11.32	115	9	1.06	0.94;
	9006	1	0	0	0	0	1	1.0029	-17.42	6.6	9	1.06	0.94;
	9007	1	0	0	0	0	1	0.9913	-18.69	6.6	9	1.06	0.94;
	9012	1	0	0	0	0	1	1.0023	-17.27	6.6	9	1.06	0.94;
	9021	1	4.75	1.56	0	0	1	0.9887	-19.09	6.6	9	1.06	0.94;
	9022	1	1.53	0.53	0.08	0	1	0.9648	-21.67	0.6	9	1.06	0.94;
	9023	1	0	0	0	0	1	0.9747	-19.41	6.6	9	1.06	0.94;
	9024	1	1.35	0.47	0.07	0	1	0.9706	-21.43	0.6	9	1.06	0.94;
	9025	1	0.45	0.16	0.02	0	1	0.9649	-20.48	0.6	9	1.06	0.94;
	9026	1	0.45	0.16	0.02	0	1	0.9657	-20.39	0.6	9	1.06	0.94;
	9031	1	1.84	0.64	0.1	0	1	0.9318	-25.03	0.6	9	1.06	0.94;
	9032	1	1.39	0.48	0.07	0	1	0.9441	-23.84	0.6	9	1.06	0.94;
	9033	1	1.89	0.65	0.1	0	1	0.9286	-25.33	0.6	9	1.06	0.94;
	9034	1	1.55	0.54	0.08	1.72	1	0.9973	-21.1	0.6	9	1.06	0.94;
	9035	1	1.66	0.58	0.09	0	1	0.9506	-23.19	0.6	9	1.06	0.94;
	9036	1	3.03	1	0	0	1	0.9598	-22.67	2.3	9	1.06	0.94;
	9037	1	1.86	0.64	0.1	0	1	0.957	-22.58	0.6	9	1.06	0.94;
	9038	1	2.58	0.89	0.14	0	1	0.9391	-24.41	0.6	9	1.06	0.94;
	9041	1	1.01	0.35	0.05	0	1	0.9636	-21.33	0.6	9	1.06	0.94;
	9042	1	0.81	0.28	0.04	0	1	0.9501	-22.5	0.6	9	1.06	0.94;
	9043	1	1.6	0.52	0	0	1	0.9646	-21.42	2.3	9	1.06	0.94;
	9044	1	0	0	0	0	1	0.979	-19.78	6.6	9	1.06	0.94;
	9051	2	35.81	0	0	0	1	1	-19.4	13.8	9	1.06	0.94;
	9052	1	30	23	0	0	1	0.9786	-17.25	13.8	9	1.06	0.94;
	9053	2	26.48	0	0	0	1	1	-17.68	13.8	9	1.06	0.94;
	9054	2	0	0	0	0	1	1	-6.83	13.8	9	1.06	0.94;
	9055	2	0	0	0	0	1	1	-7.54	13.8	9	1.06	0.94;
	9071	1	1.02	0.35	0.05	0	1	0.9752	-20.48	0.6	9	1.06	0.94;
	9072	1	1.02	0.35	0.05	0	1	0.9803	-19.92	0.6	9	1.06	0.94;
	9121	1	3.8	1.25	0	0	1	0.9799	-19.3	6.6	9	1.06	0.94;
	9533	1	1.19	0.41	0.1	0	1	1.0402	-18.24	2.3	9	1.06	0.94;
];

%% generator data
%	bus	Pg	Qg	Qmax	Qmin	Vg	mBase	status	Pmax	Pmin	Pc1	Pc2	Qc1min	Qc1max	Qc2min	Qc2max	ramp_agc	ramp_10	ramp_30	ramp_q	apf
mpc.gen = [
	8	0	0	10	-10	1.0153	100	1	100	0	0	0	0	0	0	0	0	0	0	0	0;
	10	0	0	20	-20	1.0205	100	1	100	0	0	0	0	0	0	0	0	0	0	0	0;
	20	0	0	20	-20	1.001	100	1	100	0	0	0	0	0	0	0	0	0	0	0	0;
	63	0	0	25	-25	0.9583	100	1	100	0	0	0	0	0	0	0	0	0	0	0	0;
	76	0	0	35	12	0.9632	100	1	100	0	0	0	0	0	0	0	0	0	0	0	0;
	84	375	0	240	-240	1.025	100	1	475	0	0	0	0	0	0	0	0	0	0	0	0;
	91	155	0	96	-11	1.052	100	1	255	0	0	0	0	0	0	0	0	0	0	0	0;
	92	290	0	153	-153	1.052	100	1	390	0	0	0	0	0	0	0	0	0	0	0	0;
	98	68	0	56	-30	1	100	1	168	0	0	0	0	0	0	0	0	0	0	0	0;
	108	117	0	77	-24	0.99	100	1	217	0	0	0	0	0	0	0	0	0	0	0	0;
	119	1930	0	1500	-500	1.0435	100	1	2030	0	0	0	0	0	0	0	0	0	0	0	0;
	124	240	0	120	-60	1.0233	100	1	340	0	0	0	0	0	0	0	0	0	0	0	0;
	125	0	0	200	-25	1.0103	100	1	100	0	0	0	0	0	0	0	0	0	0	0	0;
	138	0	0	350	-125	1.055	100	1	100	0	0	0	0	0	0	0	0	0	0	0	0;
	141	281	0	75	-50	1.051	100	1	381	0	0	0	0	0	0	0	0	0	0	0	0;
	143	696	0	300	-100	1.0435	100	1	796	0	0	0	0	0	0	0	0	0	0	0	0;
	146	84	0	35	-15	1.0528	100	1	184	0	0	0	0	0	0	0	0	0	0	0	0;
	147	217	0	100	-50	1.0528	100	1	317	0	0	0	0	0	0	0	0	0	0	0	0;
	149	103	0	50	-25	1.0735	100	1	203	0	0	0	0	0	0	0	0	0	0	0	0;
	152	372	0	175	-50	1.0535	100	1	472	0	0	0	0	0	0	0	0	0	0	0	0;
	153	216	0	90	-50	1.0435	100	1	316	0	0	0	0	0	0	0	0	0	0	0	0;
	156	0	0	15	-10	0.963	100	1	100	0	0	0	0	0	0	0	0	0	0	0	0;
	170	205	0	90	-40	0.929	100	1	305	0	0	0	0	0	0	0	0	0	0	0	0;
	171	0	0	150	-50	0.9829	100	1	100	0	0	0	0	0	0	0	0	0	0	0	0;
	176	228	0	90	-45	1.0522	100	1	328	0	0	0	0	0	0	0	0	0	0	0	0;
	177	84	0	35	-15	1.0077	100	1	184	0	0	0	0	0	0	0	0	0	0	0	0;
	185	200	0	80	-50	1.0522	100	1	300	0	0	0	0	0	0	0	0	0	0	0	0;
	186	1200	0	400	-100	1.065	100	1	1300	0	0	0	0	0	0	0	0	0	0	0	0;
	187	1200	0	400	-100	1.065	100	1	1300	0	0	0	0	0	0	0	0	0	0	0	0;
	190	475	0	300	-300	1.0551	100	1	575	0	0	0	0	0	0	0	0	0	0	0	0;
	191	1973	0	1000	-1000	1.0435	100	1	2073	0	0	0	0	0	0	0	0	0	0	0	0;
	198	424	0	260	-260	1.015	100	1	524	0	0	0	0	0	0	0	0	0	0	0	0;
	213	272	0	150	-150	1.01	100	1	372	0	0	0	0	0	0	0	0	0	0	0	0;
	220	100	0	60	-60	1.008	100	1	200	0	0	0	0	0	0	0	0	0	0	0	0;
	221	450	0	320	-320	1	100	1	550	0	0	0	0	0	0	0	0	0	0	0	0;
	222	250	0	300	-300	1.05	100	1	350	0	0	0	0	0	0	0	0	0	0	0	0;
	227	303	0	300	-300	1	100	1	403	0	0	0	0	0	0	0	0	0	0	0	0;
	230	345	0	250	-250	1.04	100	1	445	0	0	0	0	0	0	0	0	0	0	0	0;
	233	300	0	500	-500	1	100	1	400	0	0	0	0	0	0	0	0	0	0	0	0;
	236	600	0	300	-300	1.0165	100	1	700	0	0	0	0	0	0	0	0	0	0	0	0;
	238	250	0	200	-200	1.01	100	1	350	0	0	0	0	0	0	0	0	0	0	0	0;
	239	550	0	400	-400	1	100	1	650	0	0	0	0	0	0	0	0	0	0	0	0;
	241	575.43	0	600	-600	1.05	100	1	675.43	0	0	0	0	0	0	0	0	0	0	0	0;
	242	170	0	100	40	0.993	100	1	270	0	0	0	0	0	0	0	0	0	0	0	0;
	243	84	0	80	40	1.01	100	1	184	0	0	0	0	0	0	0	0	0	0	0	0;
	7001	467	0	210	-210	1.0507	100	1	567	0	0	0	0	0	0	0	0	0	0	0	0;
	7002	623	0	280	-280	1.0507	100	1	723	0	0	0	0	0	0	0	0	0	0	0	0;
	7003	1210	0	420	-420	1.0323	100	1	1310	0	0	0	0	0	0	0	0	0	0	0	0;
	7011	234	0	100	-100	1.0145	100	1	334	0	0	0	0	0	0	0	0	0	0	0	0;
	7012	372	0	224	-224	1.0507	100	1	472	0	0	0	0	0	0	0	0	0	0	0	0;
	7017	330	0	350	0	1.0507	100	1	430	0	0	0	0	0	0	0	0	0	0	0	0;
	7023	185	0	120	0	1.0507	100	1	285	0	0	0	0	0	0	0	0	0	0	0	0;
	7024	410	0	224	-224	1.029	100	1	510	0	0	0	0	0	0	0	0	0	0	0	0;
	7039	500	0	200	-200	1.05	100	1	600	0	0	0	0	0	0	0	0	0	0	0	0;
	7044	37	0	42	0	1.0145	100	1	137	0	0	0	0	0	0	0	0	0	0	0	0;
	7049	0	0	10	0	1.0507	100	1	2399.01	0	0	0	0	0	0	0	0	0	0	0	0;
	7055	45	0	25	0	0.9967	100	1	145	0	0	0	0	0	0	0	0	0	0	0	0;
	7057	165	0	90	-90	1.0212	100	1	265	0	0	0	0	0	0	0	0	0	0	0	0;
	7061	400	0	150	-150	1.0145	100	1	500	0	0	0	0	0	0	0	0	0	0	0	0;
	7062	400	0	150	0	1.0017	100	1	500	0	0	0	0	0	0	0	0	0	0	0	0;
	7071	116	0	87	0	0.9893	100	1	216	0	0	0	0	0	0	0	0	0	0	0	0;
	7130	1292	0	600	-100	1.0507	100	1	1392	0	0	0	0	0	0	0	0	0	0	0	0;
	7139	700	0	325	-125	1.0507	100	1	800	0	0	0	0	0	0	0	0	0	0	0	0;
	7166	553	0	300	-200	1.0145	100	1	653	0	0	0	0	0	0	0	0	0	0	0	0;
	9002	0	0	2	-2	0.9945	100	1	100	0	0	0	0	0	0	0	0	0	0	0	0;
	9051	0	0	17.35	-17.35	1	100	1	100	0	0	0	0	0	0	0	0	0	0	0	0;
	9053	0	0	12.83	-12.8	1	100	1	100	0	0	0	0	0	0	0	0	0	0	0	0;
	9054	50	0	38	-38	1	100	1	150	0	0	0	0	0	0	0	0	0	0	0	0;
	9055	8	0	6	-6	1	100	1	108	0	0	0	0	0	0	0	0	0	0	0	0;
];

%% branch data
%	fbus	tbus	r	x	b	rateA	rateB	rateC	ratio	angle	status	angmin	angmax
mpc.branch = [
	1	5	1e-05	6e-05	0	9900	0	0	0	0	1	-360	360;
	7001	1	0	0.0001953	0	9900	0	0	1	0	1	-360	360;
	2	6	1e-05	9e-05	0	9900	0	0	0	0	1	-360	360;
	2	8	6e-05	0.00027	0	9900	0	0	0	0	1	-360	360;
	7002	2	1e-05	0.000146	0	9900	0	0	1	0	1	-360	360;
	3	4	0	5e-05	0	9900	0	0	0.971	0	1	-360	360;
	3	7	0	3e-05	0	9900	0	0	0	0	1	-360	360;
	3	19	8e-05	0.00069	0	9900	0	0	0	0	1	-360	360;
	3	150	1e-05	7e-05	0	9900	0	0	0	0	1	-360	360;
	7003	3	0	0.0001054	0	9900	0	0	1	0	1	-360	360;
	4	16	2e-05	0.00019	0	9900	0	0	0	0	1	-360	360;
	7	5	0	0.00039	0	9900	0	0	0.948	0	1	-360	360;
	5	9	6e-05	0.00029	0	9900	0	0	0	0	1	-360	360;
	7	12	1e-05	9e-05	0	9900	0	0	0	0	1	-360	360;
	8	14	0.00013	0.00042	0	9900	0	0	0	0	1	-360	360;
	12	10	0	0.00053	0	9900	0	0	0.985	0	1	-360	360;
	11	13	8e-05	0.00034	0	9900	0	0	0	0	1	-360	360;
	7011	11	0	0.0001923	0	9900	0	0	1	0	1	-360	360;
	12	21	2e-05	0.00015	0	9900	0	0	0	0	1	-360	360;
	7012	12	0	0.000312	0	9900	0	0	1	0	1	-360	360;
	13	20	6e-05	0.00034	0	9900	0	0	0	0	1	-360	360;
	14	15	0.00014	0.00042	0	9900	0	0	0	0	1	-360	360;
	16	15	1e-05	0.00038	0	9900	0	0	0.971	0	1	-360	360;
	15	17	0.000194	0.000311	0	9900	0	0	0.9561	0	1	-360	360;
	16	42	2e-05	0.00022	0	9900	0	0	0	0	1	-360	360;
	7017	17	0	0.0001654	0	9900	0	0	0.942	0	1	-360	360;
	19	87	0.00013	0.0008	0	9900	0	0	0	0	1	-360	360;
	21	20	0	0.00014	0	9900	0	0	0.952	0	1	-360	360;
	21	24	4e-05	0.00034	0	9900	0	0	0	0	1	-360	360;
	22	23	0.00052	0.00111	0	9900	0	0	0	0	1	-360	360;
	24	23	0	0.00064	0	9900	0	0	0.943	0	1	-360	360;
	23	25	0.00019	0.00039	0	9900	0	0	0	0	1	-360	360;
	7023	23	0	0.00023	0	9900	0	0	1	0	1	-360	360;
	24	319	7e-05	0.00068	0	9900	0	0	0	0	1	-360	360;
	7024	24	0	0.000289	0	9900	0	0	1	0	1	-360	360;
	25	26	0.00036	0.00071	0	9900	0	0	0	0	1	-360	360;
	26	27	0.00045	0.0012	0	9900	0	0	0	0	1	-360	360;
	26	320	0.00043	0.0013	0	9900	0	0	0	0	1	-360	360;
	33	34	0	0.00063	0	9900	0	0	0	0	1	-360	360;
	33	40	6e-05	0.00029	0	9900	0	0	0	0	1	-360	360;
	34	42	1e-05	8e-05	0	9900	0	0	0	0	1	-360	360;
	36	35	0	0.00047	0	9900	0	0	1.01	0	1	-360	360;
	35	76	6e-05	0.00014	0	9900	0	0	0	0	1	-360	360;
	36	88	4e-05	0.00027	0	9900	0	0	0	0	1	-360	360;
	37	49	0.00017	0.00081	0	9900	0	0	0	0	1	-360	360;
	37	9001	6e-07	4.6e-06	0	9900	0	75	1.0082	0	1	-360	360;
	38	41	8e-05	0.00037	0	9900	0	0	0	0	1	-360	360;
	38	43	0.00032	0.00087	0	9900	0	0	0	0	1	-360	360;
	39	42	6e-06	6.4e-05	0	9900	0	0	0	0	1	-360	360;
	7039	39	0	0.0003159	0	9900	0	0	0.965	0	1	-360	360;
	40	48	0.00026	0.00154	0	9900	0	0	0	0	1	-360	360;
	41	42	0	0.00029	0	9900	0	0	0	0	1	-360	360;
	41	49	0.00065	0.00191	0	9900	0	0	0	0	1	-360	360;
	42	46	2e-05	0.00014	0	9900	0	0	0	0	1	-360	360;
	43	53	0.00013	0.00039	0	9900	0	0	0	0	1	-360	360;
	45	44	0	0.0002	0	9900	0	0	1.008	0	1	-360	360;
	44	47	0.00027	0.00084	0	9900	0	0	0	0	1	-360	360;
	7044	44	0	0.0018181	0	9900	0	0	0.942	0	1	-360	360;
	45	46	0	0.00021	0	9900	0	0	1	0	1	-360	360;
	45	60	7e-05	0.00041	0	9900	0	0	0	0	1	-360	360;
	45	74	9e-05	0.00054	0	9900	0	0	0	0	1	-360	360;
	46	81	5e-05	0.00042	0	9900	0	0	0	0	1	-360	360;
	47	113	0.00043	0.00118	0	9900	0	0	0	0	1	-360	360;
	49	51	0.00031	0.00094	0	9900	0	0	0	0	1	-360	360;
	7049	49	0	0.000124	0	9900	0	0	1	0	1	-360	360;
	51	52	0.00037	0.00109	0	9900	0	0	0	0	1	-360	360;
	54	55	0.00035	0.00103	0	9900	0	0	0	0	1	-360	360;
	55	57	0.00065	0.00169	0	9900	0	0	0	0	1	-360	360;
	7055	55	0	0.0019607	0	9900	0	0	0.942	0	1	-360	360;
	57	58	0.00046	0.0008	0	9900	0	0	0	0	1	-360	360;
	7057	57	0	0.0005347	0	9900	0	0	0.95	0	1	-360	360;
	58	59	9e-05	0.00026	0	9900	0	0	0	0	1	-360	360;
	59	61	2e-05	0.00013	0	9900	0	0	0	0	1	-360	360;
	60	62	9e-05	0.00065	0	9900	0	0	0	0	1	-360	360;
	62	61	0	0.00059	0	9900	0	0	0.975	0	1	-360	360;
	7061	61	0	0.000238	0	9900	0	0	1	0	1	-360	360;
	62	64	0.00016	0.00105	0	9900	0	0	0	0	1	-360	360;
	62	144	1e-05	7e-05	0	9900	0	0	0	0	1	-360	360;
	7062	62	0	0.0003214	0	9900	0	0	0.95	0	1	-360	360;
	63	64	0	0.00038	0	9900	0	0	1.017	0	1	-360	360;
	63	526	0.000265	0.00172	0	9900	0	0	0	0	1	-360	360;
	201	69	0	0.00098	0	9900	0	0	1.03	0	1	-360	360;
	69	211	0.00051	0.00232	0	9900	0	0	0	0	1	-360	360;
	70	71	0.00032	0.001	0	9900	0	0	0	0	1	-360	360;
	70	528	0.0002	0.001234	0	9900	0	0	0	0	1	-360	360;
	71	73	0.00034	0.00099	0	9900	0	0	0	0	1	-360	360;
	7071	71	0	0.0006896	0	9900	0	0	0.9565	0	1	-360	360;
	72	77	0.00018	0.00087	0	9900	0	0	0	0	1	-360	360;
	72	531	0.000256	0.00193	0	9900	0	0	0	0	1	-360	360;
	73	74	0	0.000244	0	9900	0	0	1	0	1	-360	360;
	74	562	0.000286	0.002013	0	9900	0	0	0	0	1	-360	360;
	76	77	0.00016	0.00043	0	9900	0	0	0	0	1	-360	360;
	77	78	1e-05	6e-05	0	9900	0	0	0	0	1	-360	360;
	77	552	0.000891	0.002676	0	9900	0	0	0	0	1	-360	360;
	77	609	0.000782	0.002127	0	9900	0	0	0	0	1	-360	360;
	78	79	6e-05	0.00022	0	9900	0	0	0	0	1	-360	360;
	78	84	0	0.00036	0	9900	0	0	0	0	1	-360	360;
	80	211	0.00022	0.00107	0	9900	0	0	0	0	1	-360	360;
	81	88	0	0.0002	0	9900	0	0	1	0	1	-360	360;
	81	195	3.5e-05	0.00033	0	9900	0	0	0	0	1	-360	360;
	85	86	8e-05	0.00064	0	9900	0	0	0	0	1	-360	360;
	85	99	0	0.00048	0	9900	0	0	1	0	1	-360	360;
	86	87	0.00012	0.00093	0	9900	0	0	0	0	1	-360	360;
	86	102	0	0.00048	0	9900	0	0	1	0	1	-360	360;
	86	323	6e-05	0.00048	0	9900	0	0	0	0	1	-360	360;
	87	94	0	0.00046	0	9900	0	0	1.015	0	1	-360	360;
	89	91	0.00047	0.00119	0	9900	0	0	0	0	1	-360	360;
	90	92	0.00032	0.00174	0	9900	0	0	0	0	1	-360	360;
	91	97	0.00022	0.00077	0	9900	0	0	0	0	1	-360	360;
	92	103	0.00019	0.00144	0	9900	0	0	0	0	1	-360	360;
	92	105	0.00017	0.00092	0	9900	0	0	0	0	1	-360	360;
	97	100	0.00022	0.00053	0	9900	0	0	0	0	1	-360	360;
	97	102	0.00038	0.00092	0	9900	0	0	0	0	1	-360	360;
	98	102	0.00034	0.00121	0	9900	0	0	0	0	1	-360	360;
	99	107	0.00053	0.00135	0	9900	0	0	0	0	1	-360	360;
	99	108	2e-05	4e-05	0	9900	0	0	0	0	1	-360	360;
	99	109	0.00045	0.00354	0	9900	0	0	0	0	1	-360	360;
	102	104	0.00043	0.00064	0	9900	0	0	0	0	1	-360	360;
	104	322	0.00044	0.00124	0	9900	0	0	0	0	1	-360	360;
	105	107	0.00012	0.00088	0	9900	0	0	0	0	1	-360	360;
	105	110	0.00157	0.004	0	9900	0	0	0	0	1	-360	360;
	108	324	0.00074	0.00208	0	9900	0	0	0	0	1	-360	360;
	109	114	0.00109	0.00393	0	9900	0	0	0	0	1	-360	360;
	110	112	0.00142	0.00404	0	9900	0	0	0	0	1	-360	360;
	114	207	0	0.00149	0	9900	0	0	0.967	0	1	-360	360;
	115	122	3.6e-05	0.000199	0	9900	0	0	0	0	1	-360	360;
	116	120	2e-05	0.001049	0	9900	0	0	0	0	1	-360	360;
	116	124	5.2e-05	0.000174	0	9900	0	0	1.01	0	1	-360	360;
	117	118	1e-06	1.8e-05	0	9900	0	0	0	0	1	-360	360;
	159	117	0	0.00016	0	9900	0	0	1.0506	0	1	-360	360;
	118	119	0	0.000271	0	9900	0	0	0	0	1	-360	360;
	118	1201	0	0.006163	0	9900	0	0	0	0	1	-360	360;
	119	120	0	0.000339	0	9900	0	0	0	0	1	-360	360;
	119	121	0	0.000582	0	9900	0	0	0	0	1	-360	360;
	119	1190	1e-05	0.00023	0	9900	0	0	1.0223	0	1	-360	360;
	120	1200	0	0.00023	0	9900	0	0	0.9284	0	1	-360	360;
	122	157	5e-06	0.000195	0	9900	0	0	1	0	1	-360	360;
	123	124	0.00036	0.001076	0	9900	0	0	0	0	1	-360	360;
	160	124	1.2e-05	0.000396	0	9900	0	0	0.975	0	1	-360	360;
	125	126	6e-06	0.000197	0	9900	0	0	0	0	1	-360	360;
	126	132	0.000198	0.001688	0	9900	0	0	0	0	1	-360	360;
	126	158	7.7e-05	0.000538	0	9900	0	0	0	0	1	-360	360;
	127	128	5.9e-05	0.000577	0	9900	0	0	0	0	1	-360	360;
	127	134	4.9e-05	0.000336	0	9900	0	0	0	0	1	-360	360;
	128	130	7.8e-05	0.000773	0	9900	0	0	0	0	1	-360	360;
	129	130	7.6e-05	0.000752	0	9900	0	0	0	0	1	-360	360;
	129	133	2.1e-05	0.000186	0	9900	0	0	0	0	1	-360	360;
	130	131	0	0.00018	0	9900	0	0	1.0522	0	1	-360	360;
	130	132	1.6e-05	0.000164	0	9900	0	0	0	0	1	-360	360;
	130	150	0	0.00014	0	9900	0	0	1.0522	0	1	-360	360;
	130	151	1.7e-05	0.000165	0	9900	0	0	0	0	1	-360	360;
	130	167	7.9e-05	0.000793	0	9900	0	0	0	0	1	-360	360;
	130	168	7.8e-05	0.000784	0	9900	0	0	0	0	1	-360	360;
	7130	130	0	0.000193	0	9900	0	0	1	0	1	-360	360;
	133	137	1.7e-05	0.000117	0	9900	0	0	0	0	1	-360	360;
	133	169	2.1e-05	0.000186	0	9900	0	0	0	0	1	-360	360;
	133	171	2e-06	0.000101	0	9900	0	0	0	0	1	-360	360;
	134	135	4.3e-05	0.000293	0	9900	0	0	0	0	1	-360	360;
	134	184	3.9e-05	0.000381	0	9900	0	0	0	0	1	-360	360;
	135	136	9.1e-05	0.000623	0	9900	0	0	0	0	1	-360	360;
	136	152	5.6e-05	0.00039	0	9900	0	0	0	0	1	-360	360;
	137	140	1.5e-05	0.000114	0	9900	0	0	0	0	1	-360	360;
	163	137	1.3e-05	0.000384	0	9900	0	0	0.98	0	1	-360	360;
	137	188	5e-06	3.4e-05	0	9900	0	0	0	0	1	-360	360;
	188	138	4e-06	0.000202	0	9900	0	0	0	0	1	-360	360;
	182	139	3e-06	0.000131	0	9900	0	0	1.05	0	1	-360	360;
	7139	139	0	0.000167	0	9900	0	0	1	0	1	-360	360;
	140	141	0.00012	0.000836	0	9900	0	0	0	0	1	-360	360;
	140	182	1.3e-05	8.9e-05	0	9900	0	0	0	0	1	-360	360;
	141	174	2.4e-05	0.000603	0	9900	0	0	0.975	0	1	-360	360;
	142	143	6e-05	0.00057	0	9900	0	0	0	0	1	-360	360;
	142	175	2.4e-05	0.000498	0	9900	0	0	1	0	1	-360	360;
	143	144	0	0.000833	0	9900	0	0	1.035	0	1	-360	360;
	143	145	7.5e-05	0.000773	0	9900	0	0	0	0	1	-360	360;
	143	148	1.3e-05	0.000371	0	9900	0	0	0.9565	0	1	-360	360;
	145	146	8.5e-05	0.000588	0	9900	0	0	0	0	1	-360	360;
	145	149	0.000218	0.001511	0	9900	0	0	0	0	1	-360	360;
	145	180	5e-06	0.000182	0	9900	0	0	1	0	1	-360	360;
	146	147	7.3e-05	0.000504	0	9900	0	0	0	0	1	-360	360;
	148	179	0.001371	0.003919	0	9900	0	0	0	0	1	-360	360;
	151	170	1e-05	0.000392	0	9900	0	0	1.05	0	1	-360	360;
	153	161	5.5e-05	0.000288	0	9900	0	0	0	0	1	-360	360;
	153	183	2.7e-05	0.000639	0	9900	0	0	1.073	0	1	-360	360;
	154	183	0.000804	0.003054	0	9900	0	0	0	0	1	-360	360;
	155	156	8e-06	0.000256	0	9900	0	0	1.05	0	1	-360	360;
	155	161	0.00011	0.000568	0	9900	0	0	0	0	1	-360	360;
	164	155	9e-06	0.000231	0	9900	0	0	0.956	0	1	-360	360;
	157	159	8e-06	9.8e-05	0	9900	0	0	0	0	1	-360	360;
	158	159	2.9e-05	0.000285	0	9900	0	0	0	0	1	-360	360;
	162	164	2.4e-05	0.000326	0	9900	0	0	0	0	1	-360	360;
	162	165	1.8e-05	0.000245	0	9900	0	0	0	0	1	-360	360;
	163	164	4.4e-05	0.000514	0	9900	0	0	0	0	1	-360	360;
	165	166	2e-06	0.000123	0	9900	0	0	0	0	1	-360	360;
	7166	166	0	0.000154	0	9900	0	0	1	0	1	-360	360;
	172	174	0.000558	0.00221	0	9900	0	0	0	0	1	-360	360;
	173	174	0.000807	0.003331	0	9900	0	0	0	0	1	-360	360;
	176	177	0.000251	0.000829	0	9900	0	0	0	0	1	-360	360;
	177	178	0.000222	0.000847	0	9900	0	0	0	0	1	-360	360;
	178	180	6.1e-05	0.00029	0	9900	0	0	0	0	1	-360	360;
	181	187	4e-06	8.3e-05	0	9900	0	0	0	0	1	-360	360;
	184	185	2.5e-05	0.000245	0	9900	0	0	0	0	1	-360	360;
	186	188	7e-06	8.6e-05	0	9900	0	0	0	0	1	-360	360;
	187	188	7e-06	8.6e-05	0	9900	0	0	0	0	1	-360	360;
	189	208	0.00033	0.00095	0	9900	0	0	0	0	1	-360	360;
	189	210	0	0.00252	0	9900	0	0	1.03	0	1	-360	360;
	229	190	0	0.000626	0	9900	0	0	0	0	1	-360	360;
	190	231	4e-06	2.2e-05	0	9900	0	0	0	0	1	-360	360;
	190	240	0	0.000275	0	9900	0	0	0	0	1	-360	360;
	191	192	3e-05	0.00048	0	9900	0	0	0	0	1	-360	360;